@<TRIPOS>MOLECULE
RES
900 0 1 0 1
SMALL
NO_CHARGES
@<TRIPOS>CRYSIN
   39.9800    39.9800    39.9800    90.0000    90.0000    90.0000  1  1
@<TRIPOS>ATOM
       1 _CH4        29.1295    32.1003    18.3649 CH4           1 RES
       2 _CH4         4.1551     2.4123    24.8178 CH4           1 RES
       3 _CH4        13.2407    12.3297     3.4207 CH4           1 RES
       4 _CH4        21.3765     7.0825    12.6332 CH4           1 RES
       5 _CH4        37.4208    12.3613    16.0984 CH4           1 RES
       6 _CH4        23.2972    21.0778    13.1905 CH4           1 RES
       7 _CH4        26.9298    33.3010    16.5541 CH4           1 RES
       8 _CH4         8.2356     4.3727     2.6689 CH4           1 RES
       9 _CH4        25.3505    10.3510    25.9014 CH4           1 RES
      10 _CH4        20.6073    24.8258    37.9800 CH4           1 RES
      11 _CH4        25.5910    21.7597    20.6792 CH4           1 RES
      12 _CH4        32.5249    34.8078    24.6676 CH4           1 RES
      13 _CH4         5.9032     8.0408     5.5188 CH4           1 RES
      14 _CH4        18.5731     3.4699    23.5043 CH4           1 RES
      15 _CH4         4.2054    27.2316     8.8563 CH4           1 RES
      16 _CH4        31.9678    30.1964     3.6268 CH4           1 RES
      17 _CH4         9.7529    13.1022    31.0830 CH4           1 RES
      18 _CH4        17.5265    20.3254    24.8105 CH4           1 RES
      19 _CH4         8.2702    19.5359    18.0175 CH4           1 RES
      20 _CH4        12.2487    37.7660    15.3229 CH4           1 RES
      21 _CH4        31.1529    14.6693    11.9439 CH4           1 RES
      22 _CH4        31.0080    17.1587     2.5811 CH4           1 RES
      23 _CH4        23.0160    19.1895    17.9885 CH4           1 RES
      24 _CH4        26.2683    37.2758    10.9492 CH4           1 RES
      25 _CH4        31.1253    20.3083    37.9798 CH4           1 RES
      26 _CH4        32.9610    17.6528    32.7195 CH4           1 RES
      27 _CH4        12.7143    22.6038    23.9613 CH4           1 RES
      28 _CH4        35.8010    18.9511    33.2498 CH4           1 RES
      29 _CH4        18.0353     2.9746     4.1465 CH4           1 RES
      30 _CH4        20.9651    23.9179     8.8408 CH4           1 RES
      31 _CH4        10.4207    10.5583    23.6671 CH4           1 RES
      32 _CH4         6.9915    32.2281    17.4971 CH4           1 RES
      33 _CH4        31.4549    17.0918    15.4642 CH4           1 RES
      34 _CH4        20.7908    35.1241     5.6321 CH4           1 RES
      35 _CH4        36.2674    37.6053    17.5562 CH4           1 RES
      36 _CH4        30.6026    34.8350    29.1597 CH4           1 RES
      37 _CH4        23.3271    26.9873     9.0478 CH4           1 RES
      38 _CH4         3.2671    37.0843    24.1628 CH4           1 RES
      39 _CH4        16.7885     8.9172    32.0017 CH4           1 RES
      40 _CH4        12.7786    12.1768    11.2859 CH4           1 RES
      41 _CH4        25.0407    34.3931     3.8525 CH4           1 RES
      42 _CH4        15.0706    25.0126    21.3574 CH4           1 RES
      43 _CH4         2.3476    10.2338    22.4077 CH4           1 RES
      44 _CH4        16.3323    22.8508    23.4887 CH4           1 RES
      45 _CH4         6.9831    31.7443    10.2949 CH4           1 RES
      46 _CH4        19.8647     3.7388     5.1013 CH4           1 RES
      47 _CH4        13.7187     9.4942     4.8350 CH4           1 RES
      48 _CH4        35.8671    10.1696    17.1243 CH4           1 RES
      49 _CH4        30.9467     7.3429     4.1198 CH4           1 RES
      50 _CH4        36.4537    36.3399     8.1787 CH4           1 RES
      51 _CH4        31.5810    20.1046    26.2724 CH4           1 RES
      52 _CH4        13.8667    34.4799    16.9696 CH4           1 RES
      53 _CH4        28.6875    23.4701    22.3839 CH4           1 RES
      54 _CH4         2.3077    27.7844    10.5147 CH4           1 RES
      55 _CH4        23.6455    35.0588    13.0057 CH4           1 RES
      56 _CH4        13.1282    23.9987    37.8816 CH4           1 RES
      57 _CH4        16.3116    15.6933    25.0814 CH4           1 RES
      58 _CH4        37.5845    36.7873    36.5659 CH4           1 RES
      59 _CH4        29.0792     7.8072     7.9385 CH4           1 RES
      60 _CH4         2.6071    24.3943     6.8155 CH4           1 RES
      61 _CH4        17.2978    11.1799    16.5195 CH4           1 RES
      62 _CH4         2.0490    22.3545    25.1959 CH4           1 RES
      63 _CH4        33.2418    36.9056     4.8408 CH4           1 RES
      64 _CH4        29.2204    27.5317    21.6415 CH4           1 RES
      65 _CH4        37.3650    25.6279    19.6685 CH4           1 RES
      66 _CH4        35.7880     6.0831    10.8756 CH4           1 RES
      67 _CH4        19.3566    31.3873     2.0006 CH4           1 RES
      68 _CH4        26.1658    20.0745    12.1450 CH4           1 RES
      69 _CH4        11.9193     2.3208    37.3246 CH4           1 RES
      70 _CH4        36.9611    37.8026    25.6599 CH4           1 RES
      71 _CH4        21.4778    25.0982    36.0046 CH4           1 RES
      72 _CH4        16.6104    11.4519     2.0004 CH4           1 RES
      73 _CH4         7.5030    17.4203     8.5137 CH4           1 RES
      74 _CH4        22.9656    23.9974    14.5532 CH4           1 RES
      75 _CH4        33.8637    16.4436    19.2004 CH4           1 RES
      76 _CH4        16.4982    22.0020     3.2518 CH4           1 RES
      77 _CH4        16.5033    14.6088    15.8852 CH4           1 RES
      78 _CH4        19.3085    31.0505     7.6260 CH4           1 RES
      79 _CH4         5.6234     4.7749    18.3450 CH4           1 RES
      80 _CH4        10.7213    17.2229    16.1674 CH4           1 RES
      81 _CH4         3.5350     5.2902    22.7440 CH4           1 RES
      82 _CH4        19.3940    24.5196    12.0147 CH4           1 RES
      83 _CH4        34.8947    18.0352    35.6187 CH4           1 RES
      84 _CH4        17.4828    17.5633    20.3554 CH4           1 RES
      85 _CH4         5.6230    35.1760    13.9549 CH4           1 RES
      86 _CH4        11.7051     2.9180     7.2016 CH4           1 RES
      87 _CH4         8.8519    14.8375    11.8438 CH4           1 RES
      88 _CH4        13.6543    34.2462    19.4722 CH4           1 RES
      89 _CH4         5.4982    11.2453    20.2195 CH4           1 RES
      90 _CH4        17.2418    28.6805    37.0698 CH4           1 RES
      91 _CH4        30.9557    19.2269    35.7952 CH4           1 RES
      92 _CH4        21.8873     3.0572     2.8708 CH4           1 RES
      93 _CH4        24.7403    13.6305    14.6142 CH4           1 RES
      94 _CH4        19.6426     4.2806    26.4959 CH4           1 RES
      95 _CH4        34.4186     5.7013    12.8618 CH4           1 RES
      96 _CH4        12.5934    28.1634    34.8194 CH4           1 RES
      97 _CH4        27.2646    30.7235    33.9263 CH4           1 RES
      98 _CH4        37.0827     2.4514    18.4894 CH4           1 RES
      99 _CH4        22.5956    36.9028    11.8179 CH4           1 RES
     100 _CH4        29.6649    19.3688     2.0016 CH4           1 RES
     101 _CH4        11.1360    16.1057    27.4037 CH4           1 RES
     102 _CH4         9.2383    20.1630    37.9795 CH4           1 RES
     103 _CH4        23.2603    35.2651    15.5279 CH4           1 RES
     104 _CH4        11.7263    10.4495    34.7604 CH4           1 RES
     105 _CH4        16.8990    17.3231    14.4772 CH4           1 RES
     106 _CH4        32.7271     9.4994    20.7338 CH4           1 RES
     107 _CH4        20.6346    34.1260    25.1274 CH4           1 RES
     108 _CH4        30.8475     7.9997    26.7048 CH4           1 RES
     109 _CH4         7.2043    21.3038    37.9799 CH4           1 RES
     110 _CH4         3.5484    16.4682    24.5883 CH4           1 RES
     111 _CH4         2.0613    19.9492    21.5680 CH4           1 RES
     112 _CH4        36.5158    20.9358    19.0937 CH4           1 RES
     113 _CH4        14.0751    10.3905    16.7276 CH4           1 RES
     114 _CH4        35.0251    11.0326     9.4279 CH4           1 RES
     115 _CH4         4.8062    31.9830    24.1029 CH4           1 RES
     116 _CH4        17.2565    30.2367     5.8917 CH4           1 RES
     117 _CH4        35.6691    10.4628    31.6790 CH4           1 RES
     118 _CH4        29.3006    19.9676    33.6933 CH4           1 RES
     119 _CH4        13.8722    12.8078    16.3543 CH4           1 RES
     120 _CH4        25.4637    27.0555    27.4936 CH4           1 RES
     121 _CH4        16.7846    17.6729    17.8034 CH4           1 RES
     122 _CH4         4.2487    26.7330    23.0538 CH4           1 RES
     123 _CH4        10.6972    29.8766    26.7624 CH4           1 RES
     124 _CH4        12.8275    30.7859    11.5230 CH4           1 RES
     125 _CH4        16.0001    36.8390     9.1353 CH4           1 RES
     126 _CH4        16.1455     9.6528    27.5820 CH4           1 RES
     127 _CH4        14.0435     6.2086    21.4466 CH4           1 RES
     128 _CH4         4.6004    16.9184     5.8797 CH4           1 RES
     129 _CH4        19.9650     9.3752     4.4221 CH4           1 RES
     130 _CH4        17.3053    13.8135     3.3270 CH4           1 RES
     131 _CH4         8.3585     7.4637    13.7978 CH4           1 RES
     132 _CH4        13.0289    27.6253    24.2095 CH4           1 RES
     133 _CH4         8.9165     3.7327    32.5644 CH4           1 RES
     134 _CH4        35.0679    26.4094    36.9517 CH4           1 RES
     135 _CH4        20.2025    31.7078    37.0128 CH4           1 RES
     136 _CH4        25.1989    33.7528    31.0063 CH4           1 RES
     137 _CH4        29.7452    16.0482     8.8595 CH4           1 RES
     138 _CH4        13.6409    23.8958     9.2013 CH4           1 RES
     139 _CH4        14.2126    27.2808    15.3138 CH4           1 RES
     140 _CH4        22.6598    34.4001    10.4484 CH4           1 RES
     141 _CH4        27.7600    30.9505     5.8617 CH4           1 RES
     142 _CH4        28.6318    35.8687    26.8361 CH4           1 RES
     143 _CH4         3.1724    13.7562    19.3946 CH4           1 RES
     144 _CH4        33.0555     4.7964     6.3059 CH4           1 RES
     145 _CH4        25.8551    33.2207    21.2193 CH4           1 RES
     146 _CH4        14.6042    11.8997    35.6786 CH4           1 RES
     147 _CH4        16.6376    15.9373    10.8440 CH4           1 RES
     148 _CH4        34.3764    36.5134     8.9349 CH4           1 RES
     149 _CH4         8.9033    23.9070    28.3626 CH4           1 RES
     150 _CH4        25.5698    27.3601    37.7839 CH4           1 RES
     151 _CH4        24.8606    22.9099    32.9106 CH4           1 RES
     152 _CH4        20.1923    12.3558    28.6703 CH4           1 RES
     153 _CH4        12.6829     2.6211    12.3629 CH4           1 RES
     154 _CH4        25.9144    16.7623    18.1837 CH4           1 RES
     155 _CH4         6.0788     7.8450    12.0339 CH4           1 RES
     156 _CH4        12.4936    24.3751    30.2003 CH4           1 RES
     157 _CH4        12.4829     7.2686    17.8311 CH4           1 RES
     158 _CH4        31.3286     7.7873     6.5960 CH4           1 RES
     159 _CH4         6.1538    34.3304    23.0409 CH4           1 RES
     160 _CH4        33.1688    32.0326    23.7883 CH4           1 RES
     161 _CH4         6.3887    18.8419    23.0945 CH4           1 RES
     162 _CH4        24.2076    33.4382    23.0300 CH4           1 RES
     163 _CH4        14.3252    25.8187     4.7656 CH4           1 RES
     164 _CH4         7.6855     8.3735     6.9428 CH4           1 RES
     165 _CH4        36.5261    19.6078     3.6183 CH4           1 RES
     166 _CH4        15.8812    37.4242    23.5105 CH4           1 RES
     167 _CH4        31.5472    24.4463    29.0370 CH4           1 RES
     168 _CH4        18.5799    22.5469    33.3072 CH4           1 RES
     169 _CH4        33.7397    17.7790     3.6360 CH4           1 RES
     170 _CH4         2.6729    22.3367    19.4934 CH4           1 RES
     171 _CH4        17.0334    14.4803    21.3759 CH4           1 RES
     172 _CH4        12.5650     5.2416    11.4016 CH4           1 RES
     173 _CH4        37.9800    13.6057    33.2848 CH4           1 RES
     174 _CH4        22.9119     2.5647    26.9866 CH4           1 RES
     175 _CH4        12.9702    28.1180    22.0029 CH4           1 RES
     176 _CH4        29.5903     7.2343    32.5752 CH4           1 RES
     177 _CH4         3.2008    25.9057    34.9930 CH4           1 RES
     178 _CH4        18.5185    36.9307    23.9075 CH4           1 RES
     179 _CH4        27.0846    22.7231    19.3037 CH4           1 RES
     180 _CH4        26.2290    13.0297    16.3387 CH4           1 RES
     181 _CH4         9.5853    35.3114    34.8635 CH4           1 RES
     182 _CH4         8.7185    26.0333    14.7109 CH4           1 RES
     183 _CH4        29.2662     5.9415    13.5127 CH4           1 RES
     184 _CH4        20.1628     6.1821     5.9076 CH4           1 RES
     185 _CH4        11.6718    20.9158    14.9523 CH4           1 RES
     186 _CH4        28.0105    24.3598    17.5030 CH4           1 RES
     187 _CH4         2.9969    14.5414    10.1203 CH4           1 RES
     188 _CH4        19.3364    25.8833     8.2445 CH4           1 RES
     189 _CH4         4.0158    27.4222    26.5423 CH4           1 RES
     190 _CH4        21.2752    26.9575     9.9407 CH4           1 RES
     191 _CH4        30.2061    18.1800     9.7837 CH4           1 RES
     192 _CH4        35.0610    16.5240    13.1312 CH4           1 RES
     193 _CH4        11.2876    21.2652    37.9793 CH4           1 RES
     194 _CH4         3.4711     5.9356    17.9879 CH4           1 RES
     195 _CH4        12.8726    16.4169    37.1476 CH4           1 RES
     196 _CH4        22.1796    37.7840    14.2391 CH4           1 RES
     197 _CH4         2.3353     7.0613    13.6703 CH4           1 RES
     198 _CH4        22.5098    10.4090    15.2073 CH4           1 RES
     199 _CH4        11.8198    22.2127     6.4302 CH4           1 RES
     200 _CH4        13.4057    18.7700    18.0947 CH4           1 RES
     201 _CH4        23.6437    28.9035    14.5800 CH4           1 RES
     202 _CH4        15.4253    27.8489    32.5786 CH4           1 RES
     203 _CH4        18.0677    25.4298    23.6980 CH4           1 RES
     204 _CH4        10.5865     7.7895     5.3837 CH4           1 RES
     205 _CH4         4.9192     4.0216    21.5959 CH4           1 RES
     206 _CH4        27.7775    14.9565    22.1595 CH4           1 RES
     207 _CH4        19.1994    30.4875    19.1271 CH4           1 RES
     208 _CH4        16.9937    32.2512    30.4875 CH4           1 RES
     209 _CH4         6.5556    28.9374    23.5756 CH4           1 RES
     210 _CH4        24.7406     2.3168     4.0896 CH4           1 RES
     211 _CH4        25.0009     7.0534    34.2143 CH4           1 RES
     212 _CH4        16.8619     8.5361     8.6505 CH4           1 RES
     213 _CH4        13.4103     7.8727    12.6292 CH4           1 RES
     214 _CH4        19.6671    29.3846    37.0801 CH4           1 RES
     215 _CH4        34.0146    16.0388     4.9555 CH4           1 RES
     216 _CH4        19.2697    23.5619    25.6033 CH4           1 RES
     217 _CH4         6.8001    17.2049    26.3226 CH4           1 RES
     218 _CH4        19.9496     6.7530    31.8303 CH4           1 RES
     219 _CH4        20.9901     2.9835    23.8452 CH4           1 RES
     220 _CH4         8.9087    29.7847    12.5700 CH4           1 RES
     221 _CH4        11.0822    33.2944     4.5311 CH4           1 RES
     222 _CH4        17.0501    23.8041    36.1525 CH4           1 RES
     223 _CH4        17.5922    15.6936    23.1815 CH4           1 RES
     224 _CH4        25.0241    10.8888    28.7857 CH4           1 RES
     225 _CH4        37.5239     4.4178    11.3885 CH4           1 RES
     226 _CH4        26.8493     8.1759    14.4934 CH4           1 RES
     227 _CH4        31.6084     3.4912    37.8393 CH4           1 RES
     228 _CH4         4.4624    25.8664    14.0062 CH4           1 RES
     229 _CH4        28.0238    14.1098    25.9389 CH4           1 RES
     230 _CH4        16.3485     3.2055    30.1027 CH4           1 RES
     231 _CH4        35.6849     3.8088     5.3226 CH4           1 RES
     232 _CH4        19.2289    26.4958    11.0191 CH4           1 RES
     233 _CH4        22.9157    26.5830    20.4115 CH4           1 RES
     234 _CH4         8.5607    14.0173    17.9423 CH4           1 RES
     235 _CH4        27.8580    22.4940     5.1352 CH4           1 RES
     236 _CH4        20.4538    34.4684     8.7358 CH4           1 RES
     237 _CH4         5.3263    20.6342    15.3062 CH4           1 RES
     238 _CH4        13.7198    22.8464    20.9645 CH4           1 RES
     239 _CH4         3.1592    33.5927    22.6172 CH4           1 RES
     240 _CH4        30.8478    20.6950    31.1466 CH4           1 RES
     241 _CH4        24.7199    24.6066    20.3251 CH4           1 RES
     242 _CH4        15.1487    29.6048     3.8929 CH4           1 RES
     243 _CH4        23.9925     7.2416    10.9646 CH4           1 RES
     244 _CH4        13.5604    32.0900    30.8293 CH4           1 RES
     245 _CH4        17.1823    12.1181    20.2089 CH4           1 RES
     246 _CH4        12.7056    27.7315    37.1185 CH4           1 RES
     247 _CH4         2.7872    16.4624    35.8112 CH4           1 RES
     248 _CH4         3.0770    13.3965     6.0822 CH4           1 RES
     249 _CH4        26.6334    10.6542    11.2991 CH4           1 RES
     250 _CH4        29.8289    21.5419    22.3528 CH4           1 RES
     251 _CH4        13.2334    10.0380     8.2060 CH4           1 RES
     252 _CH4        10.0503     5.7682     4.1064 CH4           1 RES
     253 _CH4        11.0653     9.6014     6.6018 CH4           1 RES
     254 _CH4        18.7346     9.7184    29.5797 CH4           1 RES
     255 _CH4         6.4499    30.3754    27.5130 CH4           1 RES
     256 _CH4        19.8379    18.4885    13.8342 CH4           1 RES
     257 _CH4        17.3087     7.2893    30.1276 CH4           1 RES
     258 _CH4         3.9769    29.2990    22.7806 CH4           1 RES
     259 _CH4        11.3122    26.1864    33.6286 CH4           1 RES
     260 _CH4         2.7888    27.0441    24.7550 CH4           1 RES
     261 _CH4        19.1441    34.6935    17.5481 CH4           1 RES
     262 _CH4        30.0519     5.2520     5.9052 CH4           1 RES
     263 _CH4         4.1293    10.0593    35.9312 CH4           1 RES
     264 _CH4        32.6897    16.2961    11.2300 CH4           1 RES
     265 _CH4        29.9128     5.9428    21.3424 CH4           1 RES
     266 _CH4         3.0421    22.3848     8.9660 CH4           1 RES
     267 _CH4         5.5279    32.1069    19.1366 CH4           1 RES
     268 _CH4        31.3422    32.3712    11.5370 CH4           1 RES
     269 _CH4         4.2668     5.6917     9.6264 CH4           1 RES
     270 _CH4        32.8398    29.4796    32.1914 CH4           1 RES
     271 _CH4        30.2692    28.3125    29.1097 CH4           1 RES
     272 _CH4        19.4785    10.3371    20.0029 CH4           1 RES
     273 _CH4        26.3306    20.8703    27.7000 CH4           1 RES
     274 _CH4         9.1958    21.9849    14.2829 CH4           1 RES
     275 _CH4         5.9588    15.0098    33.1138 CH4           1 RES
     276 _CH4         5.8749    31.8889    34.4937 CH4           1 RES
     277 _CH4        11.2856    34.1226    17.6558 CH4           1 RES
     278 _CH4        24.3919    28.0608    11.6459 CH4           1 RES
     279 _CH4        27.1437     6.9588    21.7804 CH4           1 RES
     280 _CH4        14.9068    11.4412     8.5359 CH4           1 RES
     281 _CH4        19.3349     2.0219    10.2550 CH4           1 RES
     282 _CH4        22.4485    29.2700     3.4887 CH4           1 RES
     283 _CH4         3.7879    19.7947    28.9989 CH4           1 RES
     284 _CH4        14.3733     4.4750     9.0984 CH4           1 RES
     285 _CH4        27.0385    28.0118     6.4676 CH4           1 RES
     286 _CH4        18.7074    16.3543     8.6631 CH4           1 RES
     287 _CH4        11.2891    21.8051    30.7806 CH4           1 RES
     288 _CH4         2.6467    11.4475     9.4670 CH4           1 RES
     289 _CH4         9.4279    19.9989    15.6208 CH4           1 RES
     290 _CH4        22.0800    36.1604    21.1330 CH4           1 RES
     291 _CH4        36.3932    35.8473    11.5596 CH4           1 RES
     292 _CH4        36.7468     6.1445     8.3578 CH4           1 RES
     293 _CH4        27.1384    31.7787    31.2117 CH4           1 RES
     294 _CH4        33.8213    13.6277    11.9472 CH4           1 RES
     295 _CH4        25.0174    12.6661     9.5879 CH4           1 RES
     296 _CH4        20.7289    30.6244     3.7112 CH4           1 RES
     297 _CH4        17.4703     7.6765    33.8452 CH4           1 RES
     298 _CH4         8.2535    37.4562    32.5960 CH4           1 RES
     299 _CH4        29.2690    12.3359    19.1075 CH4           1 RES
     300 _CH4        33.2686    28.1041     2.4599 CH4           1 RES
     301 _CH4        34.7785    16.0517    10.3090 CH4           1 RES
     302 _CH4        20.7565    10.2897    23.0140 CH4           1 RES
     303 _CH4        29.2384    20.1222    26.5390 CH4           1 RES
     304 _CH4        13.9149    10.2911    11.5999 CH4           1 RES
     305 _CH4         3.0222     5.2878    33.3244 CH4           1 RES
     306 _CH4        29.2309    16.6972    27.8004 CH4           1 RES
     307 _CH4        25.8326    18.2216    15.5909 CH4           1 RES
     308 _CH4        17.1166    25.6586     3.5148 CH4           1 RES
     309 _CH4        28.3984    20.7256    28.5039 CH4           1 RES
     310 _CH4        29.9173    33.8578     9.0573 CH4           1 RES
     311 _CH4        26.9855    27.5681    30.7951 CH4           1 RES
     312 _CH4        17.7637    33.9703    24.8833 CH4           1 RES
     313 _CH4        20.5457    35.2353     2.4658 CH4           1 RES
     314 _CH4        18.0593    18.6242     2.9546 CH4           1 RES
     315 _CH4        18.5891     6.8585    37.9800 CH4           1 RES
     316 _CH4        12.8581    10.0535    36.6530 CH4           1 RES
     317 _CH4        27.9330     4.1394    36.2508 CH4           1 RES
     318 _CH4        37.0677     4.3608    16.2243 CH4           1 RES
     319 _CH4        36.4424    13.3603    36.0563 CH4           1 RES
     320 _CH4        26.4186    18.0934    10.1651 CH4           1 RES
     321 _CH4        21.6208    20.9735    28.2207 CH4           1 RES
     322 _CH4        14.8434    29.4367    11.6994 CH4           1 RES
     323 _CH4        26.0073     3.0287    11.5464 CH4           1 RES
     324 _CH4        19.6937    26.3278     6.0155 CH4           1 RES
     325 _CH4        24.6928    31.3350     2.9360 CH4           1 RES
     326 _CH4         3.9281     7.2079    11.1854 CH4           1 RES
     327 _CH4         5.2993    10.3854    25.5232 CH4           1 RES
     328 _CH4        19.5003    10.9689    31.2563 CH4           1 RES
     329 _CH4        21.4055    36.5137    16.8601 CH4           1 RES
     330 _CH4        23.3131    23.2690     2.7184 CH4           1 RES
     331 _CH4        15.7290    18.9931     2.0267 CH4           1 RES
     332 _CH4        31.1403    14.3729    32.7476 CH4           1 RES
     333 _CH4        31.6927     8.0682    15.2305 CH4           1 RES
     334 _CH4        23.7670    28.2812    28.9768 CH4           1 RES
     335 _CH4        33.8190     7.3282     4.2668 CH4           1 RES
     336 _CH4        32.1302    14.6587     4.1929 CH4           1 RES
     337 _CH4        18.7725     7.1944    26.4009 CH4           1 RES
     338 _CH4        35.7633    36.3819    28.2348 CH4           1 RES
     339 _CH4        33.1815    33.0392    36.3748 CH4           1 RES
     340 _CH4        24.4126    22.9799    22.2784 CH4           1 RES
     341 _CH4        36.1607     7.1751    19.6502 CH4           1 RES
     342 _CH4        36.9936    22.3120    12.0681 CH4           1 RES
     343 _CH4         3.4072    14.8623    22.2998 CH4           1 RES
     344 _CH4         6.6960    37.9787    22.8837 CH4           1 RES
     345 _CH4        24.2099    33.3507    28.0457 CH4           1 RES
     346 _CH4        29.5163    20.0825    19.5319 CH4           1 RES
     347 _CH4         2.6373    20.6249    10.8979 CH4           1 RES
     348 _CH4        37.8118    25.5273     6.7830 CH4           1 RES
     349 _CH4        18.1653    27.8914    24.3548 CH4           1 RES
     350 _CH4        15.9664    18.0897    26.0532 CH4           1 RES
     351 _CH4         3.4873    33.6481    13.0606 CH4           1 RES
     352 _CH4        19.1768     5.8525     3.7797 CH4           1 RES
     353 _CH4        36.2499    28.6862    27.5484 CH4           1 RES
     354 _CH4        26.6494    14.9751     4.4822 CH4           1 RES
     355 _CH4        27.1708    20.0095    31.2728 CH4           1 RES
     356 _CH4        11.1506    13.2802    34.3700 CH4           1 RES
     357 _CH4        37.5775    26.7595    12.8070 CH4           1 RES
     358 _CH4        30.2109     6.9159    28.6873 CH4           1 RES
     359 _CH4         6.9761    22.6804    28.0308 CH4           1 RES
     360 _CH4        21.0677    13.0705    19.9887 CH4           1 RES
     361 _CH4        33.9256    31.4445    33.3265 CH4           1 RES
     362 _CH4        24.7569     7.5956    24.0859 CH4           1 RES
     363 _CH4        18.7361    13.8522    24.6016 CH4           1 RES
     364 _CH4        21.4316    18.1405    10.8153 CH4           1 RES
     365 _CH4        13.9862    22.2253    10.8173 CH4           1 RES
     366 _CH4        29.6949    13.0399    10.3166 CH4           1 RES
     367 _CH4        32.7519    37.4698    33.8106 CH4           1 RES
     368 _CH4        19.0777     9.2563    34.3431 CH4           1 RES
     369 _CH4        14.3128    19.1443    24.2154 CH4           1 RES
     370 _CH4        31.7386    35.5100    34.6487 CH4           1 RES
     371 _CH4         2.5928    18.2065    14.1575 CH4           1 RES
     372 _CH4         8.2351    33.3798    21.0804 CH4           1 RES
     373 _CH4        27.0854    34.7951    28.2347 CH4           1 RES
     374 _CH4        10.9174     6.7614    36.3006 CH4           1 RES
     375 _CH4        34.2766    36.7179    30.3075 CH4           1 RES
     376 _CH4        26.3547     6.8911    11.5106 CH4           1 RES
     377 _CH4         9.3131    13.5787     2.3953 CH4           1 RES
     378 _CH4        14.4163     9.1386    23.6711 CH4           1 RES
     379 _CH4        30.1252    25.9658    23.0774 CH4           1 RES
     380 _CH4        32.4276    28.0542    28.5851 CH4           1 RES
     381 _CH4         7.9584    14.7542     8.6569 CH4           1 RES
     382 _CH4        16.5154    17.9897     5.6712 CH4           1 RES
     383 _CH4        35.1870    32.2560    20.7580 CH4           1 RES
     384 _CH4        21.0466     8.7041    30.1862 CH4           1 RES
     385 _CH4         7.6127    37.3940    19.8324 CH4           1 RES
     386 _CH4        31.8413    11.0108    12.8945 CH4           1 RES
     387 _CH4         4.3809    30.6750    20.9836 CH4           1 RES
     388 _CH4         9.9178     6.9032     8.9967 CH4           1 RES
     389 _CH4        27.8292    31.1902     8.7542 CH4           1 RES
     390 _CH4         9.7448    18.3921    13.9684 CH4           1 RES
     391 _CH4         3.1493     5.2321    11.9263 CH4           1 RES
     392 _CH4         5.7066    17.2218    16.1418 CH4           1 RES
     393 _CH4        14.9511    30.8512     6.0489 CH4           1 RES
     394 _CH4        27.6806    34.5748     8.3959 CH4           1 RES
     395 _CH4         2.0017    36.4948    37.2750 CH4           1 RES
     396 _CH4        21.2717    29.6849    30.6553 CH4           1 RES
     397 _CH4        37.6683     9.7844    22.3004 CH4           1 RES
     398 _CH4        13.3775    12.8612     9.2809 CH4           1 RES
     399 _CH4         6.8314     6.3301    21.3446 CH4           1 RES
     400 _CH4        15.5954    26.3778    25.2288 CH4           1 RES
     401 _CH4        32.5460    14.8029    26.6730 CH4           1 RES
     402 _CH4        13.6135    20.5861    16.7389 CH4           1 RES
     403 _CH4        21.4242    34.8855    19.4632 CH4           1 RES
     404 _CH4        22.7563    33.0681     3.1467 CH4           1 RES
     405 _CH4         3.4202    36.5656    31.6583 CH4           1 RES
     406 _CH4        15.3512     7.1859    34.8814 CH4           1 RES
     407 _CH4        37.7021    33.3337    29.3800 CH4           1 RES
     408 _CH4        19.6153    11.8356    24.6347 CH4           1 RES
     409 _CH4        18.4741    34.7844    35.3515 CH4           1 RES
     410 _CH4        32.8780    19.3506    30.8412 CH4           1 RES
     411 _CH4         9.1903     6.2774     6.2226 CH4           1 RES
     412 _CH4        29.1557    34.3983    16.9249 CH4           1 RES
     413 _CH4        34.2825     2.6544     2.4436 CH4           1 RES
     414 _CH4        33.8229    26.6446    10.0810 CH4           1 RES
     415 _CH4        10.5590    30.4687     4.5108 CH4           1 RES
     416 _CH4        12.2378     7.0256     4.0348 CH4           1 RES
     417 _CH4         6.1245    28.9338    25.8132 CH4           1 RES
     418 _CH4        18.7141    11.5066    21.7041 CH4           1 RES
     419 _CH4        12.2170    15.1354    35.0631 CH4           1 RES
     420 _CH4         7.0249    26.3930    37.1718 CH4           1 RES
     421 _CH4        35.5617    13.4038     2.0201 CH4           1 RES
     422 _CH4         6.0495     4.8034    11.4830 CH4           1 RES
     423 _CH4         7.5438    22.3582    21.2002 CH4           1 RES
     424 _CH4        29.5519     9.5516    18.2690 CH4           1 RES
     425 _CH4        22.7341    17.1858     8.6800 CH4           1 RES
     426 _CH4        30.8441    10.5533    21.6467 CH4           1 RES
     427 _CH4        18.0389    21.8025    11.0260 CH4           1 RES
     428 _CH4        21.8997    26.8498    34.1656 CH4           1 RES
     429 _CH4        24.8571    28.8806     4.5950 CH4           1 RES
     430 _CH4        36.8091    16.7226    30.2159 CH4           1 RES
     431 _CH4        35.0460    14.4810    27.0532 CH4           1 RES
     432 _CH4         5.1322    33.5049     4.3950 CH4           1 RES
     433 _CH4         3.9139     8.9143    17.2418 CH4           1 RES
     434 _CH4        28.7519    33.8300     2.4992 CH4           1 RES
     435 _CH4         9.9826    13.4680    24.7653 CH4           1 RES
     436 _CH4         7.9819    21.0774     5.7123 CH4           1 RES
     437 _CH4         7.3764    22.8109     2.4302 CH4           1 RES
     438 _CH4        10.8140    35.6083    14.6984 CH4           1 RES
     439 _CH4        17.1690    33.7143    10.5521 CH4           1 RES
     440 _CH4        18.6662    31.5694     4.8441 CH4           1 RES
     441 _CH4        32.7384    23.0519    34.3064 CH4           1 RES
     442 _CH4         3.4697    23.6377    16.5871 CH4           1 RES
     443 _CH4        22.1314     8.1238    26.0989 CH4           1 RES
     444 _CH4        14.5048     4.2449    14.1307 CH4           1 RES
     445 _CH4        19.9293    36.8842    20.2714 CH4           1 RES
     446 _CH4        19.2306    19.1184    36.8180 CH4           1 RES
     447 _CH4        10.1852    14.5495     8.3880 CH4           1 RES
     448 _CH4         2.1105    29.7629    13.6751 CH4           1 RES
     449 _CH4        26.1473     7.8625    31.4531 CH4           1 RES
     450 _CH4        27.8503     8.8069    27.5104 CH4           1 RES
     451 _CH4        31.7121     5.0923    30.3319 CH4           1 RES
     452 _CH4        28.1630    11.3235     9.4027 CH4           1 RES
     453 _CH4        32.4125    32.7026     8.7500 CH4           1 RES
     454 _CH4        20.1881    28.9949    27.6189 CH4           1 RES
     455 _CH4        18.5627    18.4900    30.1718 CH4           1 RES
     456 _CH4        10.6697    23.9012    11.5827 CH4           1 RES
     457 _CH4        15.7159     6.9321     5.6489 CH4           1 RES
     458 _CH4        37.1304     5.0109    33.4942 CH4           1 RES
     459 _CH4        14.8584    27.5357    37.5353 CH4           1 RES
     460 _CH4         3.9224    25.9826    31.8922 CH4           1 RES
     461 _CH4        12.4487    15.3592    32.7634 CH4           1 RES
     462 _CH4        23.8701    30.5843    30.4552 CH4           1 RES
     463 _CH4         8.1615     5.2467    24.8010 CH4           1 RES
     464 _CH4        34.8481    25.2319    18.9422 CH4           1 RES
     465 _CH4         4.3240    35.0689    37.9800 CH4           1 RES
     466 _CH4        14.8611    24.4169    23.9654 CH4           1 RES
     467 _CH4        24.4894    33.8724    25.2774 CH4           1 RES
     468 _CH4        34.3492    15.1939    16.9418 CH4           1 RES
     469 _CH4        35.1912    36.2502     3.1922 CH4           1 RES
     470 _CH4        24.3520    15.6620    33.8065 CH4           1 RES
     471 _CH4        37.3574    18.5411    10.6972 CH4           1 RES
     472 _CH4        12.2844    27.8291    19.4720 CH4           1 RES
     473 _CH4        36.0251    19.5591     7.4362 CH4           1 RES
     474 _CH4        30.3940    31.9078    33.7192 CH4           1 RES
     475 _CH4        33.7289     9.2482    17.5887 CH4           1 RES
     476 _CH4        11.2010    25.4697    19.4501 CH4           1 RES
     477 _CH4        23.1698    30.0138    24.3827 CH4           1 RES
     478 _CH4         2.3951    36.9064    35.1480 CH4           1 RES
     479 _CH4        17.1076    31.4176    22.0394 CH4           1 RES
     480 _CH4        29.7909    18.2831    32.3265 CH4           1 RES
     481 _CH4        19.8623     6.8900    29.4595 CH4           1 RES
     482 _CH4        26.0268    11.5444    33.7856 CH4           1 RES
     483 _CH4        19.2320    32.4198    27.1879 CH4           1 RES
     484 _CH4        13.2709    15.1621    25.0553 CH4           1 RES
     485 _CH4        37.4072    16.1021    19.5925 CH4           1 RES
     486 _CH4         4.0463    24.3446    30.1438 CH4           1 RES
     487 _CH4        17.0671    32.5598    36.3332 CH4           1 RES
     488 _CH4        25.1345     5.2240    12.2688 CH4           1 RES
     489 _CH4        15.1960    25.3355    17.5911 CH4           1 RES
     490 _CH4        11.0708    31.7934    23.2196 CH4           1 RES
     491 _CH4        35.4386    35.6766    33.5425 CH4           1 RES
     492 _CH4         3.9858     3.3463    15.8827 CH4           1 RES
     493 _CH4        12.6682    34.2622    12.9607 CH4           1 RES
     494 _CH4        25.8166    18.2444    23.4154 CH4           1 RES
     495 _CH4        31.8459    13.0449    15.3969 CH4           1 RES
     496 _CH4         7.9903     8.9062    34.8847 CH4           1 RES
     497 _CH4         5.8987    20.3343    25.2048 CH4           1 RES
     498 _CH4        16.3843     8.2603    10.9493 CH4           1 RES
     499 _CH4         4.2371     2.2138    37.8474 CH4           1 RES
     500 _CH4        20.8343    34.1705    15.0938 CH4           1 RES
     501 _CH4        13.9990    30.9272    20.0682 CH4           1 RES
     502 _CH4        15.3335     4.9953    25.0577 CH4           1 RES
     503 _CH4        16.2891    23.7718    29.0842 CH4           1 RES
     504 _CH4         3.1722    17.9865    23.0397 CH4           1 RES
     505 _CH4        32.2120     9.7042    27.6790 CH4           1 RES
     506 _CH4        19.1617    26.1460    26.6820 CH4           1 RES
     507 _CH4         8.6780     3.7172    11.4107 CH4           1 RES
     508 _CH4        20.0281    28.8180    12.7538 CH4           1 RES
     509 _CH4        12.2223    32.2275     8.7119 CH4           1 RES
     510 _CH4         3.0706    31.8507    29.4784 CH4           1 RES
     511 _CH4        24.6382    35.6158     8.9254 CH4           1 RES
     512 _CH4         4.6786    29.1148    29.6811 CH4           1 RES
     513 _CH4         5.2860     6.8553    25.3692 CH4           1 RES
     514 _CH4         7.2754    29.3286     5.4587 CH4           1 RES
     515 _CH4        31.4581     7.6902    24.0023 CH4           1 RES
     516 _CH4        11.1692    13.8118    11.5661 CH4           1 RES
     517 _CH4        18.3761    17.0049    36.2841 CH4           1 RES
     518 _CH4         8.8098    31.0498     3.1579 CH4           1 RES
     519 _CH4        13.0869    24.3453    12.4891 CH4           1 RES
     520 _CH4        14.3589    14.4261    12.2441 CH4           1 RES
     521 _CH4        21.7432    19.8714    35.5987 CH4           1 RES
     522 _CH4        16.9832    11.8059    24.3523 CH4           1 RES
     523 _CH4         3.1032    31.3813    15.7543 CH4           1 RES
     524 _CH4        11.2282    29.6158    36.7817 CH4           1 RES
     525 _CH4        28.1681    26.0359    37.2364 CH4           1 RES
     526 _CH4         6.9215    13.1914    20.0703 CH4           1 RES
     527 _CH4         5.6567    33.9942    36.5981 CH4           1 RES
     528 _CH4        18.8687     8.5548    36.6073 CH4           1 RES
     529 _CH4        20.4581     4.2529    29.2556 CH4           1 RES
     530 _CH4        35.7102    16.6227    24.7616 CH4           1 RES
     531 _CH4        26.2735    17.7221     7.2485 CH4           1 RES
     532 _CH4        29.0202     3.8550    10.4944 CH4           1 RES
     533 _CH4         2.8165    34.5257    32.7971 CH4           1 RES
     534 _CH4         7.4179     2.1133    22.2116 CH4           1 RES
     535 _CH4        25.0970     6.6190    27.1507 CH4           1 RES
     536 _CH4        16.5960    20.9626    22.0123 CH4           1 RES
     537 _CH4        11.1500    26.2893    31.0291 CH4           1 RES
     538 _CH4        10.7865     3.9938    13.4203 CH4           1 RES
     539 _CH4        27.5347     9.6624    22.1855 CH4           1 RES
     540 _CH4        10.3540    34.4369    22.8516 CH4           1 RES
     541 _CH4        15.4103    32.8902    15.9227 CH4           1 RES
     542 _CH4        34.1359    32.5145    31.2989 CH4           1 RES
     543 _CH4         2.7393    17.8889    11.3701 CH4           1 RES
     544 _CH4        12.8973    26.1698    20.9712 CH4           1 RES
     545 _CH4         3.4174    17.6463    27.5133 CH4           1 RES
     546 _CH4        31.5827    11.5508     5.7478 CH4           1 RES
     547 _CH4        32.2928     5.2015    13.3040 CH4           1 RES
     548 _CH4        15.0871     6.3889    11.5923 CH4           1 RES
     549 _CH4        29.3760    13.3950    14.5716 CH4           1 RES
     550 _CH4         8.4542    15.2326    15.5413 CH4           1 RES
     551 _CH4        13.4181     2.1393     9.5828 CH4           1 RES
     552 _CH4         9.2511    20.7874    33.3487 CH4           1 RES
     553 _CH4        33.2079    12.8501    28.2531 CH4           1 RES
     554 _CH4        35.5220    28.1685    18.6352 CH4           1 RES
     555 _CH4        25.8659    11.7697    36.3674 CH4           1 RES
     556 _CH4        25.9670    26.3982    20.8109 CH4           1 RES
     557 _CH4         7.7822    27.5787    25.3073 CH4           1 RES
     558 _CH4        20.5207    29.4030    21.7192 CH4           1 RES
     559 _CH4        36.1139     6.6992     5.4586 CH4           1 RES
     560 _CH4        18.5980     5.0250     9.0127 CH4           1 RES
     561 _CH4        19.9637    12.8471    10.8941 CH4           1 RES
     562 _CH4         2.6468    14.4622     3.1183 CH4           1 RES
     563 _CH4        36.8276    16.2543     6.4020 CH4           1 RES
     564 _CH4         8.4376    13.0331    33.4340 CH4           1 RES
     565 _CH4        20.5950    24.1610     4.5713 CH4           1 RES
     566 _CH4        27.0512    17.4515    33.3606 CH4           1 RES
     567 _CH4        27.5886    31.7837    27.0811 CH4           1 RES
     568 _CH4        34.3008    22.3845    36.3089 CH4           1 RES
     569 _CH4        18.6045     7.5119    20.6156 CH4           1 RES
     570 _CH4        37.8497     9.8454    27.3057 CH4           1 RES
     571 _CH4        11.8798    23.3895    28.0508 CH4           1 RES
     572 _CH4        32.1593    34.4276    15.7744 CH4           1 RES
     573 _CH4        34.8339    20.1205     9.9803 CH4           1 RES
     574 _CH4         4.3964     9.7431    31.9187 CH4           1 RES
     575 _CH4        24.3297    11.1041    19.5933 CH4           1 RES
     576 _CH4        34.5282     2.4824    31.0441 CH4           1 RES
     577 _CH4        19.7925    29.0948     6.5158 CH4           1 RES
     578 _CH4        22.9359    30.3348     9.5824 CH4           1 RES
     579 _CH4         4.0345    12.8087    29.7476 CH4           1 RES
     580 _CH4        30.4735     6.1315    11.1375 CH4           1 RES
     581 _CH4        37.4755    28.1872     9.5111 CH4           1 RES
     582 _CH4         9.6845    28.7396    34.8903 CH4           1 RES
     583 _CH4        26.6420    29.6961    36.4141 CH4           1 RES
     584 _CH4        33.5039    33.9894     4.0829 CH4           1 RES
     585 _CH4        37.5479     9.7113     8.9577 CH4           1 RES
     586 _CH4        17.7906    33.2084     7.6624 CH4           1 RES
     587 _CH4        26.0267    29.7467     9.9907 CH4           1 RES
     588 _CH4         6.5544    17.9944    11.8902 CH4           1 RES
     589 _CH4        27.5369    28.2186    10.5152 CH4           1 RES
     590 _CH4         3.9778    32.3335    31.7159 CH4           1 RES
     591 _CH4        28.8223    17.6485     4.1733 CH4           1 RES
     592 _CH4        25.1114     9.6508    13.4168 CH4           1 RES
     593 _CH4        33.8992     2.0000    27.2919 CH4           1 RES
     594 _CH4         7.3512    18.3200    37.0653 CH4           1 RES
     595 _CH4        12.5757    10.6254    27.0265 CH4           1 RES
     596 _CH4        12.8549    33.2548     5.8746 CH4           1 RES
     597 _CH4        32.4557     5.2588     2.5843 CH4           1 RES
     598 _CH4         4.2857    19.7318    12.9835 CH4           1 RES
     599 _CH4         3.3254    28.1316     7.0499 CH4           1 RES
     600 _CH4        17.8921    12.0901    27.0641 CH4           1 RES
     601 _CH4        10.3402    16.5060    35.4046 CH4           1 RES
     602 _CH4        14.0792     6.4485    26.1356 CH4           1 RES
     603 _CH4        16.7005     5.8169     2.0005 CH4           1 RES
     604 _CH4        14.5576    12.5680    28.5656 CH4           1 RES
     605 _CH4        12.5909    16.7618    20.2973 CH4           1 RES
     606 _CH4        13.5186    33.5154    27.5642 CH4           1 RES
     607 _CH4        22.3773    27.6248     6.2890 CH4           1 RES
     608 _CH4         7.0622    34.0340    34.7968 CH4           1 RES
     609 _CH4        21.7026    31.3919    29.1731 CH4           1 RES
     610 _CH4        31.0711    16.4568    30.7746 CH4           1 RES
     611 _CH4         8.0696    11.0879    21.7012 CH4           1 RES
     612 _CH4        27.9718    35.0117    23.7715 CH4           1 RES
     613 _CH4        29.1405    11.2853    12.1139 CH4           1 RES
     614 _CH4        13.2502    29.5362    28.4222 CH4           1 RES
     615 _CH4         7.1946    32.3846    14.8553 CH4           1 RES
     616 _CH4        15.7817    15.6386     3.8887 CH4           1 RES
     617 _CH4         4.8510    30.7462     7.6522 CH4           1 RES
     618 _CH4        13.9984    25.4773    10.8135 CH4           1 RES
     619 _CH4        31.7636    19.2873    17.7066 CH4           1 RES
     620 _CH4        36.4285     3.0512    29.0417 CH4           1 RES
     621 _CH4        36.0049    18.8928    17.0653 CH4           1 RES
     622 _CH4        10.1874    15.8450    29.9544 CH4           1 RES
     623 _CH4        16.7421     6.4121    27.6131 CH4           1 RES
     624 _CH4        26.7289    19.4946    21.4579 CH4           1 RES
     625 _CH4         8.2807    16.7576    31.3602 CH4           1 RES
     626 _CH4        23.6016    17.5527    16.2650 CH4           1 RES
     627 _CH4        23.8457     3.6604    10.9255 CH4           1 RES
     628 _CH4        25.8840    21.0605     5.6139 CH4           1 RES
     629 _CH4         3.1829    11.8200    32.4853 CH4           1 RES
     630 _CH4        22.7462    29.3327    33.1085 CH4           1 RES
     631 _CH4        10.4144    35.3840    31.5715 CH4           1 RES
     632 _CH4         9.3983     2.8096     7.4910 CH4           1 RES
     633 _CH4         5.4079     9.7475    15.8584 CH4           1 RES
     634 _CH4        24.2031     2.8035    21.9771 CH4           1 RES
     635 _CH4        36.7741    29.8557    11.9573 CH4           1 RES
     636 _CH4        21.8737    26.9006     2.5310 CH4           1 RES
     637 _CH4         9.3051    12.4068     7.7405 CH4           1 RES
     638 _CH4        13.9910     2.0461    18.0170 CH4           1 RES
     639 _CH4        20.8963    24.9008    13.9493 CH4           1 RES
     640 _CH4        17.7584    27.6366     2.7893 CH4           1 RES
     641 _CH4        27.9321     8.6021    11.1472 CH4           1 RES
     642 _CH4        37.1563     3.3901    31.2776 CH4           1 RES
     643 _CH4        22.3166    14.8598    19.4225 CH4           1 RES
     644 _CH4         7.8896    10.2305    37.1661 CH4           1 RES
     645 _CH4         4.9108    25.4738     4.5373 CH4           1 RES
     646 _CH4         6.2896    21.0746    11.8367 CH4           1 RES
     647 _CH4        20.7735    23.6231    23.7236 CH4           1 RES
     648 _CH4        13.2105    21.9415     8.2150 CH4           1 RES
     649 _CH4         6.6708    31.6072    25.2361 CH4           1 RES
     650 _CH4        11.5556     8.3487     8.4772 CH4           1 RES
     651 _CH4        13.4664    18.3322    13.9783 CH4           1 RES
     652 _CH4        37.9800    15.6902    14.8626 CH4           1 RES
     653 _CH4         5.5201    14.3462     8.0186 CH4           1 RES
     654 _CH4        15.4742    27.9307    18.6520 CH4           1 RES
     655 _CH4        23.9477    19.6894     5.6243 CH4           1 RES
     656 _CH4        32.9519    22.7140     2.0001 CH4           1 RES
     657 _CH4         4.3782    11.6097     3.8013 CH4           1 RES
     658 _CH4        21.9968    33.6206    23.1397 CH4           1 RES
     659 _CH4        13.9958     2.9246    15.8428 CH4           1 RES
     660 _CH4        36.3697    26.6400    24.4099 CH4           1 RES
     661 _CH4        14.2748     8.0158     8.0111 CH4           1 RES
     662 _CH4         4.3490    20.4695    19.5798 CH4           1 RES
     663 _CH4         6.6407    27.3384    15.6071 CH4           1 RES
     664 _CH4        34.9106    27.2058    34.0137 CH4           1 RES
     665 _CH4         4.8833    26.7084    11.4612 CH4           1 RES
     666 _CH4        22.3072    21.5374    31.8622 CH4           1 RES
     667 _CH4        13.8925     6.0871    32.9193 CH4           1 RES
     668 _CH4        31.4739    33.0370    27.5670 CH4           1 RES
     669 _CH4        27.5705    29.1924    16.5835 CH4           1 RES
     670 _CH4        15.8638    29.8844    15.5481 CH4           1 RES
     671 _CH4        31.9589    15.5219     8.9856 CH4           1 RES
     672 _CH4         2.6862    30.1838    19.6587 CH4           1 RES
     673 _CH4        23.4077    21.7602    34.3097 CH4           1 RES
     674 _CH4        34.9535    11.2421    19.1960 CH4           1 RES
     675 _CH4         6.2742    35.5796     8.6841 CH4           1 RES
     676 _CH4         2.0021     2.5606    28.9092 CH4           1 RES
     677 _CH4        16.5368    19.7904    28.1436 CH4           1 RES
     678 _CH4        32.3242    35.5854     9.4287 CH4           1 RES
     679 _CH4         9.8781     2.2036    24.1065 CH4           1 RES
     680 _CH4        23.7463    13.3313    27.8895 CH4           1 RES
     681 _CH4        28.9025    15.8975    11.6489 CH4           1 RES
     682 _CH4        27.3382    34.2590    30.4375 CH4           1 RES
     683 _CH4        14.4407    32.5538    12.8831 CH4           1 RES
     684 _CH4        16.0590     6.9783    23.0024 CH4           1 RES
     685 _CH4        28.9396     6.3424    37.4348 CH4           1 RES
     686 _CH4        11.2960     4.1506    20.8463 CH4           1 RES
     687 _CH4        11.5487     6.3924    22.1833 CH4           1 RES
     688 _CH4        28.5001     2.7185     3.3010 CH4           1 RES
     689 _CH4        15.2622     8.1087    15.1545 CH4           1 RES
     690 _CH4        29.2105    27.0073    11.6825 CH4           1 RES
     691 _CH4        32.6571    31.1451    29.9530 CH4           1 RES
     692 _CH4        33.3406    21.4854    30.2979 CH4           1 RES
     693 _CH4        17.6313    17.3436    32.9262 CH4           1 RES
     694 _CH4        22.1349    33.8020    17.1189 CH4           1 RES
     695 _CH4         4.0793    32.0584    36.5105 CH4           1 RES
     696 _CH4        35.9964    23.6169     2.9981 CH4           1 RES
     697 _CH4        28.6594    35.1832    11.0495 CH4           1 RES
     698 _CH4        24.6464    32.6179    37.8277 CH4           1 RES
     699 _CH4        22.3241    33.6716    29.2889 CH4           1 RES
     700 _CH4         2.3612     8.8772    11.6655 CH4           1 RES
     701 _CH4        14.8459    37.1490    19.0396 CH4           1 RES
     702 _CH4         9.4965     7.9864    30.1943 CH4           1 RES
     703 _CH4        19.2393    36.4427    26.5022 CH4           1 RES
     704 _CH4         3.3953     7.2381    35.7438 CH4           1 RES
     705 _CH4        22.3244    24.3260    10.5230 CH4           1 RES
     706 _CH4         2.0015     3.7318    21.9991 CH4           1 RES
     707 _CH4         7.2928     6.7034    16.8504 CH4           1 RES
     708 _CH4        11.5526    20.2038    35.4519 CH4           1 RES
     709 _CH4         3.6572    22.8560    13.3388 CH4           1 RES
     710 _CH4         3.6397     8.2634     3.8264 CH4           1 RES
     711 _CH4        37.1768    24.7543    32.6244 CH4           1 RES
     712 _CH4        24.6565    20.8824     8.1913 CH4           1 RES
     713 _CH4        20.8728     5.8250    25.5234 CH4           1 RES
     714 _CH4        11.7445    36.1630    23.0335 CH4           1 RES
     715 _CH4        35.0873    10.1040    21.9213 CH4           1 RES
     716 _CH4         2.5535    22.1688     4.6348 CH4           1 RES
     717 _CH4        33.5147    24.8013    28.1177 CH4           1 RES
     718 _CH4        10.5618    19.6546     9.7401 CH4           1 RES
     719 _CH4         8.1761     8.4932    19.0469 CH4           1 RES
     720 _CH4        34.8249     5.5402    17.4402 CH4           1 RES
     721 _CH4        24.5999    27.9485    18.1093 CH4           1 RES
     722 _CH4        21.8620     7.6736    15.9182 CH4           1 RES
     723 _CH4        21.9675     5.2984    18.9500 CH4           1 RES
     724 _CH4        34.6285     6.4575    36.2612 CH4           1 RES
     725 _CH4        24.8643    32.3597    33.7792 CH4           1 RES
     726 _CH4         9.0729    25.0396     2.0436 CH4           1 RES
     727 _CH4        20.9114     7.4426     8.6460 CH4           1 RES
     728 _CH4        23.8316     3.5595     6.5905 CH4           1 RES
     729 _CH4         8.6220     9.8957     2.0014 CH4           1 RES
     730 _CH4        27.6727    34.2882    33.0954 CH4           1 RES
     731 _CH4        20.9058    24.6324    16.3919 CH4           1 RES
     732 _CH4        35.8610     6.9590    34.4865 CH4           1 RES
     733 _CH4        10.4866    13.4135    20.0944 CH4           1 RES
     734 _CH4         4.8960    37.5289    18.7936 CH4           1 RES
     735 _CH4        17.0010     9.1818    17.4149 CH4           1 RES
     736 _CH4         2.0946     8.3082    24.9816 CH4           1 RES
     737 _CH4         8.6441    33.9934    18.3612 CH4           1 RES
     738 _CH4        32.0996     6.3912    37.2878 CH4           1 RES
     739 _CH4         4.4235     4.0194    27.9200 CH4           1 RES
     740 _CH4        18.6561    12.7112    13.4379 CH4           1 RES
     741 _CH4         5.1833     4.6100    25.0644 CH4           1 RES
     742 _CH4        17.1396    32.2157     2.0014 CH4           1 RES
     743 _CH4         2.0009     9.7533    34.7074 CH4           1 RES
     744 _CH4        25.0324    28.5426    24.9359 CH4           1 RES
     745 _CH4         7.3979    23.9119    37.4841 CH4           1 RES
     746 _CH4         9.3064    16.3661    25.7353 CH4           1 RES
     747 _CH4         5.8820    13.8538     4.4719 CH4           1 RES
     748 _CH4        25.6242    21.3529    23.1915 CH4           1 RES
     749 _CH4         2.9409    23.3648    37.0483 CH4           1 RES
     750 _CH4        19.9969    11.4629     2.6298 CH4           1 RES
     751 _CH4        29.3138    27.9292    32.9515 CH4           1 RES
     752 _CH4        17.3146    34.2274    15.1108 CH4           1 RES
     753 _CH4        36.7966    22.0176    33.0682 CH4           1 RES
     754 _CH4        24.9698    28.5197    31.0815 CH4           1 RES
     755 _CH4         6.9755    28.5558    21.4316 CH4           1 RES
     756 _CH4         4.7561     9.2695    21.0747 CH4           1 RES
     757 _CH4        36.9666    17.8904    26.8694 CH4           1 RES
     758 _CH4        26.6696     3.5439    22.7796 CH4           1 RES
     759 _CH4        35.7058     2.6014    14.5552 CH4           1 RES
     760 _CH4        34.0542    34.9712    28.4383 CH4           1 RES
     761 _CH4        30.4751     3.0043    20.7514 CH4           1 RES
     762 _CH4        27.7174    37.8187    24.6680 CH4           1 RES
     763 _CH4        25.5617     4.1767    33.4435 CH4           1 RES
     764 _CH4        23.5286    11.8770    35.7237 CH4           1 RES
     765 _CH4        12.1737    27.1051    26.9800 CH4           1 RES
     766 _CH4        34.6492    18.6665    12.8095 CH4           1 RES
     767 _CH4        30.3385     4.0546    12.9338 CH4           1 RES
     768 _CH4        24.4910    30.7718    12.6441 CH4           1 RES
     769 _CH4         3.1966    36.9010    11.1952 CH4           1 RES
     770 _CH4         8.5727    27.9243     3.6696 CH4           1 RES
     771 _CH4        31.4904    13.2493    35.7482 CH4           1 RES
     772 _CH4        22.6609    24.2175    22.7620 CH4           1 RES
     773 _CH4        20.0335    35.4585    22.2737 CH4           1 RES
     774 _CH4        11.1860    29.9979    14.4117 CH4           1 RES
     775 _CH4        16.8791    20.9436    37.1303 CH4           1 RES
     776 _CH4        16.2452    13.3220    26.0184 CH4           1 RES
     777 _CH4         5.1891     6.8337     7.5324 CH4           1 RES
     778 _CH4        35.9757    14.6354    14.0243 CH4           1 RES
     779 _CH4        29.2106    14.2566    29.4596 CH4           1 RES
     780 _CH4        16.2600    33.2114    28.1225 CH4           1 RES
     781 _CH4        12.0621    15.8515    13.1375 CH4           1 RES
     782 _CH4        32.7611    17.1161    25.8351 CH4           1 RES
     783 _CH4        15.6214    26.6729    27.9003 CH4           1 RES
     784 _CH4        11.9356     2.9113    25.4841 CH4           1 RES
     785 _CH4        25.3615    15.9261    15.6269 CH4           1 RES
     786 _CH4        37.9799    35.0277    15.0076 CH4           1 RES
     787 _CH4        18.1157    26.7854    35.1834 CH4           1 RES
     788 _CH4        19.8606    15.7315     5.7828 CH4           1 RES
     789 _CH4        36.4567    19.6278    21.9953 CH4           1 RES
     790 _CH4        26.1825     7.9466    19.0013 CH4           1 RES
     791 _CH4        16.6560    11.8651    12.4974 CH4           1 RES
     792 _CH4        24.5558     7.3335     2.2585 CH4           1 RES
     793 _CH4        30.8703     9.2026    31.9669 CH4           1 RES
     794 _CH4        24.2924    25.7234    14.9440 CH4           1 RES
     795 _CH4        25.6258     2.0001    32.7422 CH4           1 RES
     796 _CH4        14.3079    16.3113    15.8667 CH4           1 RES
     797 _CH4        11.0977    32.8135    14.0655 CH4           1 RES
     798 _CH4         5.5954     6.2053    14.3204 CH4           1 RES
     799 _CH4        29.7481     9.1679    13.6732 CH4           1 RES
     800 _CH4         2.8664     3.1625     2.2740 CH4           1 RES
     801 _CH4        14.7210    19.5740    35.1300 CH4           1 RES
     802 _CH4        11.4139    18.1553    37.5120 CH4           1 RES
     803 _CH4        13.4655    20.2531     9.9906 CH4           1 RES
     804 _CH4        35.7203    37.1095    15.2156 CH4           1 RES
     805 _CH4        24.5355    29.0743    36.6847 CH4           1 RES
     806 _CH4        32.6554    28.8475    10.9373 CH4           1 RES
     807 _CH4        22.2402    17.9020    27.7464 CH4           1 RES
     808 _CH4        28.4499     6.0995    15.5907 CH4           1 RES
     809 _CH4        29.4516     3.6220    29.5865 CH4           1 RES
     810 _CH4        28.3263     3.8772    25.2003 CH4           1 RES
     811 _CH4        18.0079    12.8562     8.9668 CH4           1 RES
     812 _CH4        18.7003    36.1500    11.6483 CH4           1 RES
     813 _CH4        14.5086    35.3889    21.3155 CH4           1 RES
     814 _CH4         8.0051    35.8589    10.4787 CH4           1 RES
     815 _CH4        13.9045    20.6664    32.6714 CH4           1 RES
     816 _CH4        19.8451    23.2071    35.8076 CH4           1 RES
     817 _CH4        34.4210    18.6640    19.4391 CH4           1 RES
     818 _CH4         8.2919    29.8456    37.4399 CH4           1 RES
     819 _CH4        26.0740    28.4452    15.1127 CH4           1 RES
     820 _CH4         5.0269    31.8062    12.1934 CH4           1 RES
     821 _CH4         5.1130    11.9894    10.3612 CH4           1 RES
     822 _CH4         8.9563    17.1151     5.8735 CH4           1 RES
     823 _CH4        24.6189    37.4104    18.0618 CH4           1 RES
     824 _CH4        26.5374    33.7175     2.0003 CH4           1 RES
     825 _CH4         5.1178    32.8543    28.2559 CH4           1 RES
     826 _CH4        11.1147    16.7347     6.3254 CH4           1 RES
     827 _CH4        28.0446    26.3752    34.3858 CH4           1 RES
     828 _CH4        23.2402    32.3030    10.9124 CH4           1 RES
     829 _CH4         9.0517    27.4052    17.2126 CH4           1 RES
     830 _CH4        28.7779    27.6201    25.4652 CH4           1 RES
     831 _CH4        30.0757     5.9965    18.9426 CH4           1 RES
     832 _CH4        26.0318    24.5669    35.8887 CH4           1 RES
     833 _CH4        23.6194    25.4264     6.7275 CH4           1 RES
     834 _CH4         9.0877    37.1721     8.4095 CH4           1 RES
     835 _CH4        22.5189    31.7728    35.3304 CH4           1 RES
     836 _CH4         5.1804    23.9767    28.2939 CH4           1 RES
     837 _CH4        18.1160     2.6922    26.7227 CH4           1 RES
     838 _CH4        23.7304    18.2240    30.2744 CH4           1 RES
     839 _CH4        32.4936     2.0015     4.1487 CH4           1 RES
     840 _CH4        18.0006     9.6339    26.1590 CH4           1 RES
     841 _CH4        29.4356     3.9139    22.9292 CH4           1 RES
     842 _CH4        21.9882     7.3773    33.5306 CH4           1 RES
     843 _CH4        25.8580     5.3189     9.6296 CH4           1 RES
     844 _CH4        30.6180    10.4208    16.2122 CH4           1 RES
     845 _CH4        35.6448    33.8317    19.0818 CH4           1 RES
     846 _CH4        37.8582     5.3800    36.4166 CH4           1 RES
     847 _CH4         9.6745    10.3915     4.2014 CH4           1 RES
     848 _CH4         9.6029    30.6039    29.6447 CH4           1 RES
     849 _CH4         6.4052    17.6697    14.1041 CH4           1 RES
     850 _CH4        24.4566    14.3864     7.3006 CH4           1 RES
     851 _CH4         8.0657    33.2197    31.5791 CH4           1 RES
     852 _CH4        25.4313    32.5277    11.7076 CH4           1 RES
     853 _CH4         5.6669    30.3183    36.6150 CH4           1 RES
     854 _CH4         2.0010    29.9896    27.1682 CH4           1 RES
     855 _CH4         7.1806    10.0257    12.3822 CH4           1 RES
     856 _CH4        17.2728    29.8039     2.6758 CH4           1 RES
     857 _CH4        27.9422    24.6625    26.5646 CH4           1 RES
     858 _CH4        13.1403     7.4310    10.4604 CH4           1 RES
     859 _CH4         3.9969    14.5713    12.2823 CH4           1 RES
     860 _CH4        17.4360    21.9499     7.2126 CH4           1 RES
     861 _CH4        34.1387    24.5743     4.3273 CH4           1 RES
     862 _CH4        17.1946    27.9211    16.1685 CH4           1 RES
     863 _CH4         5.3679    12.6319    12.5317 CH4           1 RES
     864 _CH4        21.9507    26.5870    16.7839 CH4           1 RES
     865 _CH4        31.3678     9.6284    29.7109 CH4           1 RES
     866 _CH4        14.2289    26.3678    29.8044 CH4           1 RES
     867 _CH4        28.6798     8.9268    33.6474 CH4           1 RES
     868 _CH4        25.3611     9.0222    33.2142 CH4           1 RES
     869 _CH4        28.6229    20.9964    13.5389 CH4           1 RES
     870 _CH4        15.2779     9.6739    20.2461 CH4           1 RES
     871 _CH4        35.0658    21.8731    21.4264 CH4           1 RES
     872 _CH4        26.7492    19.3873    17.9836 CH4           1 RES
     873 _CH4        11.8180    17.6679    33.4867 CH4           1 RES
     874 _CH4        29.9036    31.6564     8.1744 CH4           1 RES
     875 _CH4         5.8005    28.3731    19.1532 CH4           1 RES
     876 _CH4        11.4127     5.1480    25.5779 CH4           1 RES
     877 _CH4        12.2132    31.6981    36.8302 CH4           1 RES
     878 _CH4        12.6741    37.2254     9.2306 CH4           1 RES
     879 _CH4        32.5926    16.0540    36.6839 CH4           1 RES
     880 _CH4        33.6861    18.8597     6.4515 CH4           1 RES
     881 _CH4         4.6157    16.9044    37.1079 CH4           1 RES
     882 _CH4         5.3128    24.8749    37.7458 CH4           1 RES
     883 _CH4        15.1101    11.0863    32.8003 CH4           1 RES
     884 _CH4         8.8118     4.8821    16.4548 CH4           1 RES
     885 _CH4        28.2305     9.1991    30.7268 CH4           1 RES
     886 _CH4         5.7319    23.8262    33.3612 CH4           1 RES
     887 _CH4        33.1496    21.8312    25.8288 CH4           1 RES
     888 _CH4         3.5663     2.7693    34.1122 CH4           1 RES
     889 _CH4        33.8139    29.0192    26.8992 CH4           1 RES
     890 _CH4        10.4051     9.1925    11.8951 CH4           1 RES
     891 _CH4        22.8828    31.2597    20.3927 CH4           1 RES
     892 _CH4        14.2434     4.2957    36.9138 CH4           1 RES
     893 _CH4        11.5083    36.6507    17.2935 CH4           1 RES
     894 _CH4        19.5046     2.9261     7.5948 CH4           1 RES
     895 _CH4        11.1164    36.4847    11.1018 CH4           1 RES
     896 _CH4        35.7613    31.3337    27.6309 CH4           1 RES
     897 _CH4        10.8790     5.8299    16.1977 CH4           1 RES
     898 _CH4         6.7882    11.1552    30.3763 CH4           1 RES
     899 _CH4        20.7055    17.2290    35.4084 CH4           1 RES
     900 _CH4         7.0531    30.7621    22.4429 CH4           1 RES
@<TRIPOS>BOND
@<TRIPOS>SUBSTRUCTURE
       1 RES             1 RESIDUE    0 1    ROOT      0
