@<TRIPOS>MOLECULE
RES
1500 1200 1 0 1
SMALL
NO_CHARGES
@<TRIPOS>CRYSIN
   40.5500    40.5500    40.5500    90.0000    90.0000    90.0000  1  1
@<TRIPOS>ATOM
       1 _CH2        32.3165    22.4042     4.5388 CH2_sp3       1 RES
       2 _CH2        32.1752    21.0528     3.8140 CH2_sp3       1 RES
       3 _CH2        31.7502    19.8914     4.7317 CH2_sp3       1 RES
       4 _CH3        32.7415    23.5656     3.6211 CH3_sp3       1 RES
       5 _CH3        31.6088    18.5399     4.0070 CH3_sp3       1 RES
       6 _CH2        13.6902    31.7518    30.6429 CH2_sp3       1 RES
       7 _CH2        13.3403    30.3214    31.0936 CH2_sp3       1 RES
       8 _CH2        12.4883    29.5359    30.0793 CH2_sp3       1 RES
       9 _CH3        14.5423    32.5373    31.6572 CH3_sp3       1 RES
      10 _CH3        12.1384    28.1055    30.5299 CH3_sp3       1 RES
      11 _CH2        17.9673    11.8191    34.6785 CH2_sp3       1 RES
      12 _CH2        18.2987    12.5652    33.3726 CH2_sp3       1 RES
      13 _CH2        19.7498    12.3748    32.8934 CH2_sp3       1 RES
      14 _CH3        16.5162    12.0094    35.1577 CH3_sp3       1 RES
      15 _CH3        20.0811    13.1209    31.5876 CH3_sp3       1 RES
      16 _CH2        29.9610    16.1978    27.3118 CH2_sp3       1 RES
      17 _CH2        29.2139    16.3088    25.9698 CH2_sp3       1 RES
      18 _CH2        27.6808    16.3537    26.1083 CH2_sp3       1 RES
      19 _CH3        31.4941    16.1529    27.1734 CH3_sp3       1 RES
      20 _CH3        26.9336    16.4648    24.7662 CH3_sp3       1 RES
      21 _CH2        20.8222     2.5391    26.2165 CH2_sp3       1 RES
      22 _CH2        21.4585     2.9922    24.8893 CH2_sp3       1 RES
      23 _CH2        20.4750     3.0330    23.7049 CH2_sp3       1 RES
      24 _CH3        21.8056     2.4983    27.4009 CH3_sp3       1 RES
      25 _CH3        21.1113     3.4861    22.3777 CH3_sp3       1 RES
      26 _CH2        23.5772     7.2185    11.9950 CH2_sp3       1 RES
      27 _CH2        23.1628     7.6451    10.5744 CH2_sp3       1 RES
      28 _CH2        24.1719     8.5796     9.8816 CH2_sp3       1 RES
      29 _CH3        22.5681     6.2840    12.6878 CH3_sp3       1 RES
      30 _CH3        23.7575     9.0061     8.4611 CH3_sp3       1 RES
      31 _CH2        22.8602    15.5561    33.0553 CH2_sp3       1 RES
      32 _CH2        21.9876    14.3365    33.4056 CH2_sp3       1 RES
      33 _CH2        22.7639    13.0078    33.4664 CH2_sp3       1 RES
      34 _CH3        22.0839    16.8848    32.9945 CH3_sp3       1 RES
      35 _CH3        21.8913    11.7881    33.8167 CH3_sp3       1 RES
      36 _CH2        25.9554    12.1923     9.5202 CH2_sp3       1 RES
      37 _CH2        25.0030    12.1873    10.7303 CH2_sp3       1 RES
      38 _CH2        23.5442    12.5355    10.3807 CH2_sp3       1 RES
      39 _CH3        27.4142    11.8441     9.8698 CH3_sp3       1 RES
      40 _CH3        22.5917    12.5304    11.5908 CH3_sp3       1 RES
      41 _CH2         6.0656    23.2821    19.0083 CH2_sp3       1 RES
      42 _CH2         6.3837    23.0854    20.5022 CH2_sp3       1 RES
      43 _CH2         6.6633    21.6230    20.8958 CH2_sp3       1 RES
      44 _CH3         5.7860    24.7444    18.6147 CH3_sp3       1 RES
      45 _CH3         6.9813    21.4263    22.3897 CH3_sp3       1 RES
      46 _CH2        14.1972    14.2369     6.6601 CH2_sp3       1 RES
      47 _CH2        14.5290    14.0322     8.1499 CH2_sp3       1 RES
      48 _CH2        14.1969    12.6242     8.6779 CH2_sp3       1 RES
      49 _CH3        14.5293    15.6449     6.1321 CH3_sp3       1 RES
      50 _CH3        14.5288    12.4195    10.1677 CH3_sp3       1 RES
      51 _CH2        34.0581    33.3226    31.2506 CH2_sp3       1 RES
      52 _CH2        35.0767    33.5538    32.3822 CH2_sp3       1 RES
      53 _CH2        34.4362    33.8005    33.7608 CH2_sp3       1 RES
      54 _CH3        34.6987    33.0759    29.8720 CH3_sp3       1 RES
      55 _CH3        35.4548    34.0317    34.8924 CH3_sp3       1 RES
      56 _CH2         5.5540    19.5136    14.0096 CH2_sp3       1 RES
      57 _CH2         5.8173    19.7387    12.5091 CH2_sp3       1 RES
      58 _CH2         7.0395    20.6278    12.2140 CH2_sp3       1 RES
      59 _CH3         4.3317    18.6244    14.3046 CH3_sp3       1 RES
      60 _CH3         7.3028    20.8529    10.7135 CH3_sp3       1 RES
      61 _CH2        14.4322    36.8565    32.1358 CH2_sp3       1 RES
      62 _CH2        14.4538    37.7008    30.8481 CH2_sp3       1 RES
      63 _CH2        15.8099    37.6957    30.1183 CH2_sp3       1 RES
      64 _CH3        13.0761    36.8616    32.8655 CH3_sp3       1 RES
      65 _CH3        15.8314    38.5400    28.8306 CH3_sp3       1 RES
      66 _CH2         8.1522    37.3569    17.7354 CH2_sp3       1 RES
      67 _CH2         8.5666    36.8944    19.1447 CH2_sp3       1 RES
      68 _CH2         9.5329    35.6954    19.1516 CH2_sp3       1 RES
      69 _CH3         7.1859    38.5559    17.7285 CH3_sp3       1 RES
      70 _CH3         9.9473    35.2329    20.5608 CH3_sp3       1 RES
      71 _CH2        34.6844    25.2536    22.4534 CH2_sp3       1 RES
      72 _CH2        36.0913    24.6314    22.3802 CH2_sp3       1 RES
      73 _CH2        36.2220    23.2891    23.1237 CH2_sp3       1 RES
      74 _CH3        34.5537    26.5959    21.7100 CH3_sp3       1 RES
      75 _CH3        37.6288    22.6670    23.0505 CH3_sp3       1 RES
      76 _CH2        17.7761    15.4927    23.6583 CH2_sp3       1 RES
      77 _CH2        16.7334    14.7886    24.5464 CH2_sp3       1 RES
      78 _CH2        15.5177    14.2441    23.7735 CH2_sp3       1 RES
      79 _CH3        18.9917    16.0371    24.4312 CH3_sp3       1 RES
      80 _CH3        14.4750    13.5400    24.6615 CH3_sp3       1 RES
      81 _CH2         5.3809    16.0733    18.4294 CH2_sp3       1 RES
      82 _CH2         5.9362    16.1610    19.8632 CH2_sp3       1 RES
      83 _CH2         5.5431    14.9730    20.7608 CH2_sp3       1 RES
      84 _CH3         5.7740    17.2613    17.5317 CH3_sp3       1 RES
      85 _CH3         6.0983    15.0607    22.1946 CH3_sp3       1 RES
      86 _CH2        34.0733    14.0773    38.1490 CH2_sp3       1 RES
      87 _CH2        33.4047    15.1660    37.2892 CH2_sp3       1 RES
      88 _CH2        32.0382    15.6344    37.8231 CH2_sp3       1 RES
      89 _CH3        35.4398    13.6089    37.6151 CH3_sp3       1 RES
      90 _CH3        31.3696    16.7232    36.9633 CH3_sp3       1 RES
      91 _CH2        20.1831    20.1776    22.2257 CH2_sp3       1 RES
      92 _CH2        20.0266    20.4817    20.7242 CH2_sp3       1 RES
      93 _CH2        19.7592    21.9654    20.4101 CH2_sp3       1 RES
      94 _CH3        20.4505    18.6939    22.5398 CH3_sp3       1 RES
      95 _CH3        19.6028    22.2695    18.9085 CH3_sp3       1 RES
      96 _CH2        34.4047    36.5466    19.3958 CH2_sp3       1 RES
      97 _CH2        34.3628    35.8101    20.7477 CH2_sp3       1 RES
      98 _CH2        35.1477    36.5149    21.8696 CH2_sp3       1 RES
      99 _CH3        33.6197    35.8417    18.2739 CH3_sp3       1 RES
     100 _CH3        35.1058    35.7784    23.2214 CH3_sp3       1 RES
     101 _CH2         5.4789    22.2177    33.9634 CH2_sp3       1 RES
     102 _CH2         5.5413    23.4559    33.0498 CH2_sp3       1 RES
     103 _CH2         6.4926    24.5578    33.5523 CH2_sp3       1 RES
     104 _CH3         4.5275    21.1159    33.4610 CH3_sp3       1 RES
     105 _CH3         6.5550    25.7960    32.6387 CH3_sp3       1 RES
     106 _CH2        18.2442    33.1360     6.2022 CH2_sp3       1 RES
     107 _CH2        19.2198    32.2826     5.3705 CH2_sp3       1 RES
     108 _CH2        18.8553    32.1911     3.8770 CH2_sp3       1 RES
     109 _CH3        18.6087    33.2274     7.6956 CH3_sp3       1 RES
     110 _CH3        19.8309    31.3378     3.0453 CH3_sp3       1 RES
     111 _CH2        28.3739    11.4903    34.6729 CH2_sp3       1 RES
     112 _CH2        28.2306    11.3917    33.1428 CH2_sp3       1 RES
     113 _CH2        29.0561    12.4354    32.3677 CH2_sp3       1 RES
     114 _CH3        27.5483    10.4466    35.4479 CH3_sp3       1 RES
     115 _CH3        28.9128    12.3367    30.8376 CH3_sp3       1 RES
     116 _CH2        11.3096    33.3798    11.5802 CH2_sp3       1 RES
     117 _CH2        12.2067    33.8916    10.4379 CH2_sp3       1 RES
     118 _CH2        11.7342    33.4709     9.0339 CH2_sp3       1 RES
     119 _CH3        11.7822    33.8004    12.9843 CH3_sp3       1 RES
     120 _CH3        12.6313    33.9827     7.8916 CH3_sp3       1 RES
     121 _CH2        28.2501    24.5236    34.4624 CH2_sp3       1 RES
     122 _CH2        26.8752    24.8648    33.8585 CH2_sp3       1 RES
     123 _CH2        26.4300    26.3197    34.0969 CH2_sp3       1 RES
     124 _CH3        28.6952    23.0687    34.2241 CH3_sp3       1 RES
     125 _CH3        25.0551    26.6609    33.4930 CH3_sp3       1 RES
     126 _CH2         6.1403    16.0853     7.9699 CH2_sp3       1 RES
     127 _CH2         7.4275    15.3852     7.4959 CH2_sp3       1 RES
     128 _CH2         8.7027    15.8671     8.2122 CH2_sp3       1 RES
     129 _CH3         4.8650    15.6035     7.2536 CH3_sp3       1 RES
     130 _CH3         9.9899    15.1670     7.7382 CH3_sp3       1 RES
     131 _CH2         8.4986    21.8378    34.6170 CH2_sp3       1 RES
     132 _CH2         7.4984    20.7334    34.2276 CH2_sp3       1 RES
     133 _CH2         8.1054    19.3183    34.2044 CH2_sp3       1 RES
     134 _CH3         7.8915    23.2529    34.6402 CH3_sp3       1 RES
     135 _CH3         7.1052    18.2140    33.8150 CH3_sp3       1 RES
     136 _CH2         8.3407    21.0706    30.8610 CH2_sp3       1 RES
     137 _CH2         7.2408    20.7957    29.8189 CH2_sp3       1 RES
     138 _CH2         7.1814    21.8331    28.6823 CH2_sp3       1 RES
     139 _CH3         8.4001    20.0332    31.9976 CH3_sp3       1 RES
     140 _CH3         6.0814    21.5582    27.6401 CH3_sp3       1 RES
     141 _CH2        27.2413     7.5196    23.6878 CH2_sp3       1 RES
     142 _CH2        28.2431     7.3419    24.8439 CH2_sp3       1 RES
     143 _CH2        29.2432     6.1898    24.6345 CH2_sp3       1 RES
     144 _CH3        26.2411     8.6717    23.8971 CH3_sp3       1 RES
     145 _CH3        30.2450     6.0121    25.7906 CH3_sp3       1 RES
     146 _CH2        21.0449     4.3257     8.8067 CH2_sp3       1 RES
     147 _CH2        19.7216     3.6047     9.1240 CH2_sp3       1 RES
     148 _CH2        18.4788     4.5101     9.0387 CH2_sp3       1 RES
     149 _CH3        22.2877     3.4203     8.8919 CH3_sp3       1 RES
     150 _CH3        17.1556     3.7891     9.3560 CH3_sp3       1 RES
     151 _CH2         9.8314     4.1379    11.9053 CH2_sp3       1 RES
     152 _CH2         8.4352     3.6931    12.3792 CH2_sp3       1 RES
     153 _CH2         8.1327     4.0397    13.8489 CH2_sp3       1 RES
     154 _CH3        10.1339     3.7913    10.4356 CH3_sp3       1 RES
     155 _CH3         6.7366     3.5950    14.3227 CH3_sp3       1 RES
     156 _CH2        16.1575    19.4274    22.9315 CH2_sp3       1 RES
     157 _CH2        16.5487    18.7663    21.5967 CH2_sp3       1 RES
     158 _CH2        18.0678    18.6966    21.3538 CH2_sp3       1 RES
     159 _CH3        14.6384    19.4970    23.1745 CH3_sp3       1 RES
     160 _CH3        18.4590    18.0356    20.0190 CH3_sp3       1 RES
     161 _CH2        14.8610     6.9604    31.1904 CH2_sp3       1 RES
     162 _CH2        13.7330     7.8697    30.6685 CH2_sp3       1 RES
     163 _CH2        13.6478     7.9432    29.1326 CH2_sp3       1 RES
     164 _CH3        14.9462     6.8869    32.7263 CH3_sp3       1 RES
     165 _CH3        12.5198     8.8525    28.6106 CH3_sp3       1 RES
     166 _CH2         6.4874    24.1946    22.9087 CH2_sp3       1 RES
     167 _CH2         7.3978    23.3354    23.8057 CH2_sp3       1 RES
     168 _CH2         8.8915    23.6988    23.7131 CH2_sp3       1 RES
     169 _CH3         4.9937    23.8313    23.0013 CH3_sp3       1 RES
     170 _CH3         9.8019    22.8396    24.6101 CH3_sp3       1 RES
     171 _CH2        12.5760    26.5788    32.1023 CH2_sp3       1 RES
     172 _CH2        13.3289    26.0206    30.8804 CH2_sp3       1 RES
     173 _CH2        12.4180    25.3460    29.8379 CH2_sp3       1 RES
     174 _CH3        13.4868    27.2534    33.1448 CH3_sp3       1 RES
     175 _CH3        13.1710    24.7878    28.6160 CH3_sp3       1 RES
     176 _CH2        36.0683    34.3819    10.1820 CH2_sp3       1 RES
     177 _CH2        36.7976    34.7687    11.4821 CH2_sp3       1 RES
     178 _CH2        37.2434    36.2418    11.5358 CH2_sp3       1 RES
     179 _CH3        35.6226    32.9088    10.1283 CH3_sp3       1 RES
     180 _CH3        37.9726    36.6285    12.8358 CH3_sp3       1 RES
     181 _CH2         2.9719    23.7861    26.4200 CH2_sp3       1 RES
     182 _CH2         2.7720    23.0075    25.1064 CH2_sp3       1 RES
     183 _CH2         3.7412    21.8245    24.9258 CH2_sp3       1 RES
     184 _CH3         2.0027    24.9691    26.6007 CH3_sp3       1 RES
     185 _CH3         3.5413    21.0459    23.6122 CH3_sp3       1 RES
     186 _CH2        20.9673    19.2204    30.2286 CH2_sp3       1 RES
     187 _CH2        19.8501    18.1762    30.4105 CH2_sp3       1 RES
     188 _CH2        19.9718    17.3472    31.7026 CH2_sp3       1 RES
     189 _CH3        20.8456    20.0493    28.9365 CH3_sp3       1 RES
     190 _CH3        18.8546    16.3030    31.8844 CH3_sp3       1 RES
     191 _CH2         7.3787    29.4257    34.5121 CH2_sp3       1 RES
     192 _CH2         7.2114    30.5078    33.4292 CH2_sp3       1 RES
     193 _CH2         5.9023    31.3109    33.5432 CH2_sp3       1 RES
     194 _CH3         8.6877    28.6226    34.3981 CH3_sp3       1 RES
     195 _CH3         5.7351    32.3931    32.4603 CH3_sp3       1 RES
     196 _CH2        28.7604    34.2269    11.2642 CH2_sp3       1 RES
     197 _CH2        28.4362    34.4398     9.7739 CH2_sp3       1 RES
     198 _CH2        29.3484    33.6517     8.8156 CH2_sp3       1 RES
     199 _CH3        27.8482    35.0150    12.2225 CH3_sp3       1 RES
     200 _CH3        29.0242    33.8645     7.3252 CH3_sp3       1 RES
     201 _CH2        20.8668     8.5453    17.8620 CH2_sp3       1 RES
     202 _CH2        21.5185     9.7664    17.1870 CH2_sp3       1 RES
     203 _CH2        20.5107    10.8197    16.6904 CH2_sp3       1 RES
     204 _CH3        21.8746     7.4920    18.3586 CH3_sp3       1 RES
     205 _CH3        21.1624    12.0408    16.0154 CH3_sp3       1 RES
     206 _CH2        34.7146    18.1480    37.7540 CH2_sp3       1 RES
     207 _CH2        34.9719    18.2032    36.2366 CH2_sp3       1 RES
     208 _CH2        34.0230    17.3176    35.4078 CH2_sp3       1 RES
     209 _CH3        35.6634    19.0337    38.5828 CH3_sp3       1 RES
     210 _CH3        34.2803    17.3728    33.8904 CH3_sp3       1 RES
     211 _CH2        19.7926     7.7765     9.4816 CH2_sp3       1 RES
     212 _CH2        18.9667     7.3165     8.2659 CH2_sp3       1 RES
     213 _CH2        17.7754     8.2344     7.9345 CH2_sp3       1 RES
     214 _CH3        20.9839     6.8586     9.8131 CH3_sp3       1 RES
     215 _CH3        16.9495     7.7744     6.7188 CH3_sp3       1 RES
     216 _CH2         7.2962    21.3609     5.4154 CH2_sp3       1 RES
     217 _CH2         7.0166    20.8561     6.8432 CH2_sp3       1 RES
     218 _CH2         6.0485    19.6601     6.9064 CH2_sp3       1 RES
     219 _CH3         8.2643    22.5569     5.3522 CH3_sp3       1 RES
     220 _CH3         5.7690    19.1553     8.3342 CH3_sp3       1 RES
     221 _CH2        31.8710    36.3206     7.8072 CH2_sp3       1 RES
     222 _CH2        31.7594    36.8025     9.2656 CH2_sp3       1 RES
     223 _CH2        32.5478    38.0920     9.5612 CH2_sp3       1 RES
     224 _CH3        31.0826    35.0311     7.5116 CH3_sp3       1 RES
     225 _CH3        32.4362    38.5739    11.0196 CH3_sp3       1 RES
     226 _CH2        21.7661    31.4751     7.5416 CH2_sp3       1 RES
     227 _CH2        20.7682    30.6137     8.3377 CH2_sp3       1 RES
     228 _CH2        21.3034    29.2188     8.7110 CH2_sp3       1 RES
     229 _CH3        21.2309    32.8700     7.1683 CH3_sp3       1 RES
     230 _CH3        20.3055    28.3575     9.5072 CH3_sp3       1 RES
     231 _CH2         8.3383     5.4663     5.3529 CH2_sp3       1 RES
     232 _CH2         7.4449     5.3374     6.6006 CH2_sp3       1 RES
     233 _CH2         6.5016     4.1204     6.5726 CH2_sp3       1 RES
     234 _CH3         9.2816     6.6833     5.3810 CH3_sp3       1 RES
     235 _CH3         5.6081     3.9915     7.8202 CH3_sp3       1 RES
     236 _CH2        21.0352    33.5220    14.7523 CH2_sp3       1 RES
     237 _CH2        20.1253    34.6203    15.3333 CH2_sp3       1 RES
     238 _CH2        20.0921    35.9133    14.4975 CH2_sp3       1 RES
     239 _CH3        21.0684    32.2291    15.5882 CH3_sp3       1 RES
     240 _CH3        19.1822    37.0115    15.0785 CH3_sp3       1 RES
     241 _CH2        23.6172    25.2640    19.0240 CH2_sp3       1 RES
     242 _CH2        24.8684    26.0605    19.4384 CH2_sp3       1 RES
     243 _CH2        26.1868    25.2792    19.2872 CH2_sp3       1 RES
     244 _CH3        22.2988    26.0453    19.1752 CH3_sp3       1 RES
     245 _CH3        27.4380    26.0757    19.7016 CH3_sp3       1 RES
     246 _CH2        22.4556    18.6519     4.8650 CH2_sp3       1 RES
     247 _CH2        22.1819    18.8606     6.3661 CH2_sp3       1 RES
     248 _CH2        23.2077    19.7687     7.0695 CH2_sp3       1 RES
     249 _CH3        21.4298    17.7438     4.1616 CH3_sp3       1 RES
     250 _CH3        22.9340    19.9774     8.5705 CH3_sp3       1 RES
     251 _CH2        31.7880    18.4886    30.1790 CH2_sp3       1 RES
     252 _CH2        32.7769    18.5695    31.3567 CH2_sp3       1 RES
     253 _CH2        32.1849    19.2034    32.6292 CH2_sp3       1 RES
     254 _CH3        32.3800    17.8546    28.9065 CH3_sp3       1 RES
     255 _CH3        33.1737    19.2843    33.8070 CH3_sp3       1 RES
     256 _CH2        22.7042    35.3071    30.5208 CH2_sp3       1 RES
     257 _CH2        22.9776    34.5416    31.8288 CH2_sp3       1 RES
     258 _CH2        22.6890    33.0314    31.7428 CH2_sp3       1 RES
     259 _CH3        22.9928    36.8174    30.6069 CH3_sp3       1 RES
     260 _CH3        22.9625    32.2659    33.0508 CH3_sp3       1 RES
     261 _CH2        18.3335    35.5583    32.9086 CH2_sp3       1 RES
     262 _CH2        17.9479    35.7097    34.3918 CH2_sp3       1 RES
     263 _CH2        16.6304    36.4733    34.6217 CH2_sp3       1 RES
     264 _CH3        19.6510    34.7946    32.6788 CH3_sp3       1 RES
     265 _CH3        16.2448    36.6247    36.1049 CH3_sp3       1 RES
     266 _CH2        30.2021    12.9188     5.6790 CH2_sp3       1 RES
     267 _CH2        29.8008    14.4052     5.7132 CH2_sp3       1 RES
     268 _CH2        28.8320    14.8185     4.5898 CH2_sp3       1 RES
     269 _CH3        31.1709    12.5055     6.8024 CH3_sp3       1 RES
     270 _CH3        28.4307    16.3049     4.6240 CH3_sp3       1 RES
     271 _CH2        28.7056     3.6037     9.9946 CH2_sp3       1 RES
     272 _CH2        29.6245     4.1320    11.1118 CH2_sp3       1 RES
     273 _CH2        28.8770     4.5552    12.3900 CH2_sp3       1 RES
     274 _CH3        29.4532     3.1804     8.7165 CH3_sp3       1 RES
     275 _CH3        29.7959     5.0836    13.5071 CH3_sp3       1 RES
     276 _CH2        18.3226    27.0602     4.8560 CH2_sp3       1 RES
     277 _CH2        19.1393    28.3377     5.1255 CH2_sp3       1 RES
     278 _CH2        20.6639    28.1213     5.1100 CH2_sp3       1 RES
     279 _CH3        16.7979    27.2767     4.8715 CH3_sp3       1 RES
     280 _CH3        21.4807    29.3988     5.3794 CH3_sp3       1 RES
     281 _CH2        34.2293    29.1115    23.9913 CH2_sp3       1 RES
     282 _CH2        33.8370    28.0381    25.0236 CH2_sp3       1 RES
     283 _CH2        32.3192    27.9146    25.2528 CH2_sp3       1 RES
     284 _CH3        35.7471    29.2350    23.7621 CH3_sp3       1 RES
     285 _CH3        31.9268    26.8413    26.2851 CH3_sp3       1 RES
     286 _CH2        25.1076    14.2201    12.1627 CH2_sp3       1 RES
     287 _CH2        24.4379    15.5790    12.4391 CH2_sp3       1 RES
     288 _CH2        23.2046    15.8598    11.5606 CH2_sp3       1 RES
     289 _CH3        26.3409    13.9393    13.0412 CH3_sp3       1 RES
     290 _CH3        22.5349    17.2187    11.8371 CH3_sp3       1 RES
     291 _CH2        16.6573    30.6185     3.3171 CH2_sp3       1 RES
     292 _CH2        15.4056    31.2784     3.9250 CH2_sp3       1 RES
     293 _CH2        14.6041    32.1372     2.9293 CH2_sp3       1 RES
     294 _CH3        17.4588    29.7596     4.3128 CH3_sp3       1 RES
     295 _CH3        13.3524    32.7971     3.5372 CH3_sp3       1 RES
     296 _CH2        26.7642     6.6678    12.3800 CH2_sp3       1 RES
     297 _CH2        27.9006     7.3058    11.5596 CH2_sp3       1 RES
     298 _CH2        28.6159     8.4658    12.2767 CH2_sp3       1 RES
     299 _CH3        26.0489     5.5078    11.6628 CH3_sp3       1 RES
     300 _CH3        29.7523     9.1038    11.4563 CH3_sp3       1 RES
     301 _CH2        16.1764    19.6029    33.2782 CH2_sp3       1 RES
     302 _CH2        14.7818    19.0564    32.9204 CH2_sp3       1 RES
     303 _CH2        14.8095    17.8324    31.9861 CH2_sp3       1 RES
     304 _CH3        16.1488    20.8268    34.2124 CH3_sp3       1 RES
     305 _CH3        13.4149    17.2859    31.6283 CH3_sp3       1 RES
     306 _CH2        20.0315    29.5336    28.2736 CH2_sp3       1 RES
     307 _CH2        19.9544    29.7616    29.7947 CH2_sp3       1 RES
     308 _CH2        19.9698    31.2453    30.2073 CH2_sp3       1 RES
     309 _CH3        20.0161    28.0500    27.8611 CH3_sp3       1 RES
     310 _CH3        19.8928    31.4733    31.7283 CH3_sp3       1 RES
     311 _CH2         9.4324    21.5013    18.8055 CH2_sp3       1 RES
     312 _CH2         8.8950    22.0644    20.1344 CH2_sp3       1 RES
     313 _CH2         8.9366    23.6011    20.2260 CH2_sp3       1 RES
     314 _CH3         9.3908    19.9646    18.7139 CH3_sp3       1 RES
     315 _CH3         8.3992    24.1641    21.5548 CH3_sp3       1 RES
     316 _CH2         5.9951    16.9988    27.6657 CH2_sp3       1 RES
     317 _CH2         4.9867    18.1446    27.4608 CH2_sp3       1 RES
     318 _CH2         5.5569    19.3507    26.6916 CH2_sp3       1 RES
     319 _CH3         5.4249    15.7927    28.4349 CH3_sp3       1 RES
     320 _CH3         4.5486    20.4965    26.4867 CH3_sp3       1 RES
     321 _CH2        38.5138    26.9526    29.2193 CH2_sp3       1 RES
     322 _CH2        37.4589    27.9748    28.7570 CH2_sp3       1 RES
     323 _CH2        37.4235    28.1927    27.2329 CH2_sp3       1 RES
     324 _CH3        38.5492    26.7348    30.7434 CH3_sp3       1 RES
     325 _CH3        36.3685    29.2149    26.7706 CH3_sp3       1 RES
     326 _CH2        14.0912     5.6836    36.4096 CH2_sp3       1 RES
     327 _CH2        13.9684     4.6712    37.5636 CH2_sp3       1 RES
     328 _CH2        14.4868     3.2626    37.2188 CH2_sp3       1 RES
     329 _CH3        13.5729     7.0922    36.7544 CH3_sp3       1 RES
     330 _CH3        14.3640     2.2502    38.3727 CH3_sp3       1 RES
     331 _CH2        18.4929    14.0199    17.5953 CH2_sp3       1 RES
     332 _CH2        17.9314    13.1252    18.7159 CH2_sp3       1 RES
     333 _CH2        17.2113    13.9005    19.8349 CH2_sp3       1 RES
     334 _CH3        19.2130    13.2446    16.4764 CH3_sp3       1 RES
     335 _CH3        16.6498    13.0058    20.9555 CH3_sp3       1 RES
     336 _CH2         2.4155    13.5084     4.8114 CH2_sp3       1 RES
     337 _CH2         2.2161    14.5856     5.8938 CH2_sp3       1 RES
     338 _CH2         2.6315    16.0013     5.4526 CH2_sp3       1 RES
     339 _CH3         2.0000    12.0927     5.2527 CH3_sp3       1 RES
     340 _CH3         2.4321    17.0785     6.5349 CH3_sp3       1 RES
     341 _CH2         7.0066     4.7327    26.1455 CH2_sp3       1 RES
     342 _CH2         7.8547     5.6887    25.2861 CH2_sp3       1 RES
     343 _CH2         7.6020     7.1804    25.5736 CH2_sp3       1 RES
     344 _CH3         7.2593     3.2411    25.8580 CH3_sp3       1 RES
     345 _CH3         8.4500     8.1364    24.7142 CH3_sp3       1 RES
     346 _CH2        32.5010     6.0498    25.5338 CH2_sp3       1 RES
     347 _CH2        33.7079     6.6342    24.7766 CH2_sp3       1 RES
     348 _CH2        34.1159     8.0446    25.2414 CH2_sp3       1 RES
     349 _CH3        32.0931     4.6394    25.0691 CH3_sp3       1 RES
     350 _CH3        35.3228     8.6290    24.4842 CH3_sp3       1 RES
     351 _CH2        29.5103    23.2343    37.3958 CH2_sp3       1 RES
     352 _CH2        28.6856    24.4850    37.0392 CH2_sp3       1 RES
     353 _CH2        28.9819    25.7056    37.9301 CH2_sp3       1 RES
     354 _CH3        29.2140    22.0136    36.5049 CH3_sp3       1 RES
     355 _CH3        28.1571    26.9563    37.5735 CH3_sp3       1 RES
     356 _CH2        23.2662    19.4153    29.0625 CH2_sp3       1 RES
     357 _CH2        23.6269    18.1428    29.8514 CH2_sp3       1 RES
     358 _CH2        23.8091    18.3735    31.3630 CH2_sp3       1 RES
     359 _CH3        23.0840    19.1846    27.5508 CH3_sp3       1 RES
     360 _CH3        24.1698    17.1010    32.1519 CH3_sp3       1 RES
     361 _CH2         3.7241    11.5733    21.5165 CH2_sp3       1 RES
     362 _CH2         2.9262    12.8677    21.7603 CH2_sp3       1 RES
     363 _CH2         2.7983    13.2543    23.2455 CH2_sp3       1 RES
     364 _CH3         3.8520    11.1867    20.0313 CH3_sp3       1 RES
     365 _CH3         2.0004    14.5487    23.4893 CH3_sp3       1 RES
     366 _CH2        33.7449    16.5214    10.2293 CH2_sp3       1 RES
     367 _CH2        32.4323    16.1561    10.9471 CH2_sp3       1 RES
     368 _CH2        32.5875    15.0584    12.0161 CH2_sp3       1 RES
     369 _CH3        33.5897    17.6190     9.1603 CH3_sp3       1 RES
     370 _CH3        31.2749    14.6931    12.7339 CH3_sp3       1 RES
     371 _CH2        35.9159    14.4376     8.3233 CH2_sp3       1 RES
     372 _CH2        37.2614    15.1048     8.6641 CH2_sp3       1 RES
     373 _CH2        37.2037    16.0445     9.8828 CH2_sp3       1 RES
     374 _CH3        35.9736    13.4979     7.1046 CH3_sp3       1 RES
     375 _CH3        38.5492    16.7117    10.2235 CH3_sp3       1 RES
     376 _CH2        32.7069    21.8993    37.7599 CH2_sp3       1 RES
     377 _CH2        32.3682    22.4181    36.3500 CH2_sp3       1 RES
     378 _CH2        31.5382    23.7153    36.3426 CH2_sp3       1 RES
     379 _CH3        33.5368    20.6021    37.7674 CH3_sp3       1 RES
     380 _CH3        31.1995    24.2341    34.9327 CH3_sp3       1 RES
     381 _CH2        28.0235    17.0108    20.8054 CH2_sp3       1 RES
     382 _CH2        28.8947    15.8690    21.3613 CH2_sp3       1 RES
     383 _CH2        28.1169    14.8411    22.2040 CH2_sp3       1 RES
     384 _CH3        28.8012    18.0388    19.9627 CH3_sp3       1 RES
     385 _CH3        28.9881    13.6993    22.7599 CH3_sp3       1 RES
     386 _CH2        22.8318    27.5115    25.3657 CH2_sp3       1 RES
     387 _CH2        21.3673    27.0616    25.5216 CH2_sp3       1 RES
     388 _CH2        20.9106    26.0384    24.4651 CH2_sp3       1 RES
     389 _CH3        23.2886    28.5346    26.4222 CH3_sp3       1 RES
     390 _CH3        19.4460    25.5885    24.6209 CH3_sp3       1 RES
     391 _CH2        20.9377    30.0445    14.1340 CH2_sp3       1 RES
     392 _CH2        19.6023    30.5946    13.5995 CH2_sp3       1 RES
     393 _CH2        19.6967    32.0210    13.0269 CH2_sp3       1 RES
     394 _CH3        20.8433    28.6181    14.7066 CH3_sp3       1 RES
     395 _CH3        18.3612    32.5711    12.4924 CH3_sp3       1 RES
     396 _CH2        14.9142    14.1394    16.5283 CH2_sp3       1 RES
     397 _CH2        13.6543    13.2643    16.3928 CH2_sp3       1 RES
     398 _CH2        13.4702    12.6432    14.9957 CH2_sp3       1 RES
     399 _CH3        15.0983    14.7605    17.9254 CH3_sp3       1 RES
     400 _CH3        12.2104    11.7680    14.8603 CH3_sp3       1 RES
     401 _CH2         3.3397    32.6071    11.2735 CH2_sp3       1 RES
     402 _CH2         3.5745    32.9330    12.7602 CH2_sp3       1 RES
     403 _CH2         2.2829    33.2069    13.5529 CH2_sp3       1 RES
     404 _CH3         4.6313    32.3332    10.4808 CH3_sp3       1 RES
     405 _CH3         2.5176    33.5328    15.0396 CH3_sp3       1 RES
     406 _CH2        17.7191    11.3470     8.9778 CH2_sp3       1 RES
     407 _CH2        18.4161    11.3274    10.3509 CH2_sp3       1 RES
     408 _CH2        19.9518    11.4129    10.2751 CH2_sp3       1 RES
     409 _CH3        16.1834    11.2614     9.0536 CH3_sp3       1 RES
     410 _CH3        20.6488    11.3933    11.6482 CH3_sp3       1 RES
     411 _CH2        19.4088    22.9263    34.6846 CH2_sp3       1 RES
     412 _CH2        18.7615    22.4640    36.0032 CH2_sp3       1 RES
     413 _CH2        18.0677    21.0921    35.9132 CH2_sp3       1 RES
     414 _CH3        20.1026    24.2982    34.7746 CH3_sp3       1 RES
     415 _CH3        17.4203    20.6299    37.2319 CH3_sp3       1 RES
     416 _CH2        28.2316    19.4723    32.5955 CH2_sp3       1 RES
     417 _CH2        27.4312    20.5949    31.9094 CH2_sp3       1 RES
     418 _CH2        27.8480    22.0139    32.3390 CH2_sp3       1 RES
     419 _CH3        27.8149    18.0534    32.1659 CH3_sp3       1 RES
     420 _CH3        27.0476    23.1365    31.6529 CH3_sp3       1 RES
     421 _CH2        30.4179    19.7676    34.7728 CH2_sp3       1 RES
     422 _CH2        30.4192    20.3259    33.3376 CH2_sp3       1 RES
     423 _CH2        30.9313    21.7743    33.2294 CH2_sp3       1 RES
     424 _CH3        29.9059    18.3193    34.8811 CH3_sp3       1 RES
     425 _CH3        30.9325    22.3326    31.7941 CH3_sp3       1 RES
     426 _CH2        18.8399    28.6719    32.5139 CH2_sp3       1 RES
     427 _CH2        18.7885    27.7983    33.7811 CH2_sp3       1 RES
     428 _CH2        19.0398    28.5742    35.0874 CH2_sp3       1 RES
     429 _CH3        18.5886    27.8960    31.2076 CH3_sp3       1 RES
     430 _CH3        18.9884    27.7006    36.3546 CH3_sp3       1 RES
     431 _CH2         7.8728    19.8122    24.8101 CH2_sp3       1 RES
     432 _CH2         8.3901    19.5220    26.2313 CH2_sp3       1 RES
     433 _CH2         7.6380    18.3878    26.9522 CH2_sp3       1 RES
     434 _CH3         8.6248    20.9464    24.0892 CH3_sp3       1 RES
     435 _CH3         8.1553    18.0976    28.3734 CH3_sp3       1 RES
     436 _CH2        36.6076    26.2190    37.4206 CH2_sp3       1 RES
     437 _CH2        35.4980    25.4883    38.1993 CH2_sp3       1 RES
     438 _CH2        35.3144    24.0142    37.7932 CH2_sp3       1 RES
     439 _CH3        36.7912    27.6931    37.8267 CH3_sp3       1 RES
     440 _CH3        34.2047    23.2835    38.5718 CH3_sp3       1 RES
     441 _CH2        31.0485    28.8661    13.6797 CH2_sp3       1 RES
     442 _CH2        30.2172    28.6665    14.9606 CH2_sp3       1 RES
     443 _CH2        28.7207    28.4105    14.7026 CH2_sp3       1 RES
     444 _CH3        32.5450    29.1221    13.9377 CH3_sp3       1 RES
     445 _CH3        27.8895    28.2109    15.9835 CH3_sp3       1 RES
     446 _CH2        33.7402    18.0200    24.6544 CH2_sp3       1 RES
     447 _CH2        33.7195    18.7566    23.3021 CH2_sp3       1 RES
     448 _CH2        32.7759    18.1271    22.2604 CH2_sp3       1 RES
     449 _CH3        34.6837    18.6494    25.6961 CH3_sp3       1 RES
     450 _CH3        32.7552    18.8637    20.9081 CH3_sp3       1 RES
     451 _CH2        30.4608    18.8117     9.9750 CH2_sp3       1 RES
     452 _CH2        29.6782    18.7898    11.3011 CH2_sp3       1 RES
     453 _CH2        28.1797    18.4740    11.1390 CH2_sp3       1 RES
     454 _CH3        31.9593    19.1275    10.1371 CH3_sp3       1 RES
     455 _CH3        27.3971    18.4522    12.4652 CH3_sp3       1 RES
     456 _CH2        21.7132    13.0922     9.2640 CH2_sp3       1 RES
     457 _CH2        22.2344    12.5161     7.9344 CH2_sp3       1 RES
     458 _CH2        23.0727    11.2340     8.0930 CH2_sp3       1 RES
     459 _CH3        20.8749    14.3742     9.1054 CH3_sp3       1 RES
     460 _CH3        23.5939    10.6579     6.7633 CH3_sp3       1 RES
     461 _CH2        11.0886    32.6130    29.9834 CH2_sp3       1 RES
     462 _CH2        10.8703    32.5109    31.5044 CH2_sp3       1 RES
     463 _CH2        12.1664    32.6046    32.3309 CH2_sp3       1 RES
     464 _CH3         9.7926    32.5193    29.1569 CH3_sp3       1 RES
     465 _CH3        11.9480    32.5026    33.8519 CH3_sp3       1 RES
     466 _CH2        25.1808    21.1845    22.9157 CH2_sp3       1 RES
     467 _CH2        26.2905    20.5724    22.0407 CH2_sp3       1 RES
     468 _CH2        26.7498    21.4810    20.8852 CH2_sp3       1 RES
     469 _CH3        24.7215    20.2759    24.0712 CH3_sp3       1 RES
     470 _CH3        27.8594    20.8689    20.0102 CH3_sp3       1 RES
     471 _CH2        14.5962    10.3455     6.9191 CH2_sp3       1 RES
     472 _CH2        13.3362     9.4866     6.7038 CH2_sp3       1 RES
     473 _CH2        13.5260     7.9982     7.0504 CH2_sp3       1 RES
     474 _CH3        14.4064    11.8340     6.5725 CH3_sp3       1 RES
     475 _CH3        12.2661     7.1393     6.8351 CH3_sp3       1 RES
     476 _CH2        13.9255    26.4005     7.5686 CH2_sp3       1 RES
     477 _CH2        15.0372    26.3422     8.6327 CH2_sp3       1 RES
     478 _CH2        14.9057    27.4094     9.7351 CH2_sp3       1 RES
     479 _CH3        14.0570    25.3333     6.4662 CH3_sp3       1 RES
     480 _CH3        16.0174    27.3510    10.7992 CH3_sp3       1 RES
     481 _CH2        23.9308    33.8188    22.8431 CH2_sp3       1 RES
     482 _CH2        22.4536    34.2542    22.8533 CH2_sp3       1 RES
     483 _CH2        21.4588    33.0999    22.6308 CH2_sp3       1 RES
     484 _CH3        24.9256    34.9732    23.0656 CH3_sp3       1 RES
     485 _CH3        19.9817    33.5353    22.6411 CH3_sp3       1 RES
     486 _CH2        31.7102     5.3273    17.7249 CH2_sp3       1 RES
     487 _CH2        32.9524     4.5423    17.2642 CH2_sp3       1 RES
     488 _CH2        33.4862     3.5449    18.3091 CH2_sp3       1 RES
     489 _CH3        31.1764     6.3246    16.6799 CH3_sp3       1 RES
     490 _CH3        34.7284     2.7599    17.8484 CH3_sp3       1 RES
     491 _CH2         3.3331    25.5614    28.2838 CH2_sp3       1 RES
     492 _CH2         4.6774    25.2813    28.9810 CH2_sp3       1 RES
     493 _CH2         5.8113    24.8829    28.0182 CH2_sp3       1 RES
     494 _CH3         2.1991    25.9598    29.2466 CH3_sp3       1 RES
     495 _CH3         7.1556    24.6028    28.7154 CH3_sp3       1 RES
     496 _CH2         8.3007    10.1911    11.1806 CH2_sp3       1 RES
     497 _CH2         7.6776    10.3293     9.7791 CH2_sp3       1 RES
     498 _CH2         6.4015    11.1906     9.7431 CH2_sp3       1 RES
     499 _CH3         9.5768     9.3297    11.2165 CH3_sp3       1 RES
     500 _CH3         5.7784    11.3289     8.3416 CH3_sp3       1 RES
     501 _CH2        26.4489    30.2396    30.1972 CH2_sp3       1 RES
     502 _CH2        27.4179    29.0911    29.8601 CH2_sp3       1 RES
     503 _CH2        27.6977    28.1411    31.0394 CH2_sp3       1 RES
     504 _CH3        26.1691    31.1896    29.0179 CH3_sp3       1 RES
     505 _CH3        28.6667    26.9926    30.7023 CH3_sp3       1 RES
     506 _CH2        17.4381    34.7553    14.7330 CH2_sp3       1 RES
     507 _CH2        16.0272    34.3415    14.2750 CH2_sp3       1 RES
     508 _CH2        14.9108    34.7204    15.2657 CH2_sp3       1 RES
     509 _CH3        18.5546    34.3765    13.7422 CH3_sp3       1 RES
     510 _CH3        13.4999    34.3066    14.8077 CH3_sp3       1 RES
     511 _CH2        11.8383     8.1682    18.3376 CH2_sp3       1 RES
     512 _CH2        12.3473     8.1192    19.7902 CH2_sp3       1 RES
     513 _CH2        11.2489     7.8268    20.8293 CH2_sp3       1 RES
     514 _CH3        12.9366     8.4606    17.2985 CH3_sp3       1 RES
     515 _CH3        11.7579     7.7778    22.2819 CH3_sp3       1 RES
     516 _CH2        31.1587    32.8632    22.2521 CH2_sp3       1 RES
     517 _CH2        31.8097    32.3710    20.9461 CH2_sp3       1 RES
     518 _CH2        33.3183    32.6646    20.8488 CH2_sp3       1 RES
     519 _CH3        29.6501    32.5695    22.3494 CH3_sp3       1 RES
     520 _CH3        33.9693    32.1724    19.5428 CH3_sp3       1 RES
     521 _CH2        11.3968    27.7466    13.6502 CH2_sp3       1 RES
     522 _CH2        11.9196    28.7304    14.7134 CH2_sp3       1 RES
     523 _CH2        10.8758    29.1141    15.7787 CH2_sp3       1 RES
     524 _CH3        12.4405    27.3628    12.5848 CH3_sp3       1 RES
     525 _CH3        11.3986    30.0979    16.8420 CH3_sp3       1 RES
     526 _CH2        31.8894     4.4269     6.5873 CH2_sp3       1 RES
     527 _CH2        32.4718     4.1568     7.9871 CH2_sp3       1 RES
     528 _CH2        33.5024     3.0131     8.0267 CH2_sp3       1 RES
     529 _CH3        30.8588     5.5705     6.5476 CH3_sp3       1 RES
     530 _CH3        34.0848     2.7430     9.4265 CH3_sp3       1 RES
     531 _CH2        35.6108    29.9068    30.9200 CH2_sp3       1 RES
     532 _CH2        35.0074    29.7563    32.3289 CH2_sp3       1 RES
     533 _CH2        36.0080    29.2600    33.3891 CH2_sp3       1 RES
     534 _CH3        34.6102    30.4030    29.8598 CH3_sp3       1 RES
     535 _CH3        35.4046    29.1095    34.7979 CH3_sp3       1 RES
     536 _CH2        35.7628    26.1179    34.5849 CH2_sp3       1 RES
     537 _CH2        34.7770    25.4425    33.6135 CH2_sp3       1 RES
     538 _CH2        33.2956    25.7133    33.9356 CH2_sp3       1 RES
     539 _CH3        37.2442    25.8470    34.2628 CH3_sp3       1 RES
     540 _CH3        32.3098    25.0379    32.9642 CH3_sp3       1 RES
     541 _CH2         6.4820     9.3036    16.8666 CH2_sp3       1 RES
     542 _CH2         6.7805     8.3666    18.0517 CH2_sp3       1 RES
     543 _CH2         6.2064     6.9470    17.8879 CH2_sp3       1 RES
     544 _CH3         7.0561    10.7232    17.0305 CH3_sp3       1 RES
     545 _CH3         6.5048     6.0100    19.0730 CH3_sp3       1 RES
     546 _CH2        18.7054     7.2149    23.4722 CH2_sp3       1 RES
     547 _CH2        18.7274     5.7310    23.8833 CH2_sp3       1 RES
     548 _CH2        18.8051     5.5035    25.4044 CH2_sp3       1 RES
     549 _CH3        18.6277     7.4424    21.9511 CH3_sp3       1 RES
     550 _CH3        18.8270     4.0195    25.8154 CH3_sp3       1 RES
     551 _CH2        22.9418    34.0398    11.5020 CH2_sp3       1 RES
     552 _CH2        22.9216    35.3618    12.2915 CH2_sp3       1 RES
     553 _CH2        22.4536    35.2126    13.7511 CH2_sp3       1 RES
     554 _CH3        23.4097    34.1890    10.0424 CH3_sp3       1 RES
     555 _CH3        22.4334    36.5347    14.5407 CH3_sp3       1 RES
     556 _CH2         4.3069    25.0522    32.1734 CH2_sp3       1 RES
     557 _CH2         4.3106    24.2190    30.8783 CH2_sp3       1 RES
     558 _CH2         4.9215    22.8145    31.0388 CH2_sp3       1 RES
     559 _CH3         3.6961    26.4567    32.0129 CH3_sp3       1 RES
     560 _CH3         4.9252    21.9812    29.7437 CH3_sp3       1 RES
     561 _CH2         3.9081    24.3511     6.3861 CH2_sp3       1 RES
     562 _CH2         3.9641    25.8230     6.8357 CH2_sp3       1 RES
     563 _CH2         3.2628    26.0945     8.1795 CH2_sp3       1 RES
     564 _CH3         4.6095    24.0795     5.0422 CH3_sp3       1 RES
     565 _CH3         3.3188    27.5664     8.6291 CH3_sp3       1 RES
     566 _CH2         6.5580    15.3468    12.4558 CH2_sp3       1 RES
     567 _CH2         5.4466    16.2254    11.8521 CH2_sp3       1 RES
     568 _CH2         5.6965    16.6337    10.3884 CH2_sp3       1 RES
     569 _CH3         6.3081    14.9385    13.9195 CH3_sp3       1 RES
     570 _CH3         4.5851    17.5123     9.7847 CH3_sp3       1 RES
     571 _CH2        14.4790    32.4084    13.0403 CH2_sp3       1 RES
     572 _CH2        14.4426    32.1254    14.5537 CH2_sp3       1 RES
     573 _CH2        15.7874    32.3583    15.2670 CH2_sp3       1 RES
     574 _CH3        13.1343    32.1754    12.3270 CH3_sp3       1 RES
     575 _CH3        15.7509    32.0754    16.7804 CH3_sp3       1 RES
     576 _CH2        28.1182     3.7873    27.4411 CH2_sp3       1 RES
     577 _CH2        29.4280     3.4337    28.1698 CH2_sp3       1 RES
     578 _CH2        30.6164     4.3394    27.7971 CH2_sp3       1 RES
     579 _CH3        26.9298     2.8815    27.8138 CH3_sp3       1 RES
     580 _CH3        31.9261     3.9858    28.5258 CH3_sp3       1 RES
     581 _CH2        37.4983    30.4565    20.6926 CH2_sp3       1 RES
     582 _CH2        37.3610    30.3982    19.1598 CH2_sp3       1 RES
     583 _CH2        36.7885    29.0695    18.6323 CH2_sp3       1 RES
     584 _CH3        38.0708    31.7852    21.2201 CH3_sp3       1 RES
     585 _CH3        36.6511    29.0112    17.0995 CH3_sp3       1 RES
     586 _CH2        11.6468    27.0620    21.4405 CH2_sp3       1 RES
     587 _CH2        10.3747    26.8719    20.5937 CH2_sp3       1 RES
     588 _CH2        10.3542    25.5653    19.7788 CH2_sp3       1 RES
     589 _CH3        11.6674    28.3686    22.2554 CH3_sp3       1 RES
     590 _CH3         9.0820    25.3752    18.9319 CH3_sp3       1 RES
     591 _CH2        16.8701    30.8305    26.3331 CH2_sp3       1 RES
     592 _CH2        16.6403    30.7894    27.8553 CH2_sp3       1 RES
     593 _CH2        15.6093    29.7375    28.3050 CH2_sp3       1 RES
     594 _CH3        17.9011    31.8824    25.8835 CH3_sp3       1 RES
     595 _CH3        15.3794    29.6964    29.8272 CH3_sp3       1 RES
     596 _CH2        27.6186    29.0185    35.4066 CH2_sp3       1 RES
     597 _CH2        28.9111    28.3847    34.8595 CH2_sp3       1 RES
     598 _CH2        29.9945    28.1493    35.9284 CH2_sp3       1 RES
     599 _CH3        26.5353    29.2540    34.3377 CH3_sp3       1 RES
     600 _CH3        31.2870    27.5155    35.3812 CH3_sp3       1 RES
     601 _CH2         6.5242    12.3629    24.2585 CH2_sp3       1 RES
     602 _CH2         5.4852    13.4783    24.0391 CH2_sp3       1 RES
     603 _CH2         4.8235    13.9817    25.3353 CH2_sp3       1 RES
     604 _CH3         7.1859    11.8595    22.9623 CH3_sp3       1 RES
     605 _CH3         3.7845    15.0970    25.1159 CH3_sp3       1 RES
     606 _CH2        29.5609    24.1333    19.9289 CH2_sp3       1 RES
     607 _CH2        29.9758    25.6072    19.7648 CH2_sp3       1 RES
     608 _CH2        29.4374    26.5361    20.8689 CH2_sp3       1 RES
     609 _CH3        30.0993    23.2044    18.8249 CH3_sp3       1 RES
     610 _CH3        29.8522    28.0101    20.7048 CH3_sp3       1 RES
     611 _CH2         9.7264    25.8919    28.3114 CH2_sp3       1 RES
     612 _CH2         9.2018    25.0840    29.5129 CH2_sp3       1 RES
     613 _CH2        10.3020    24.6266    30.4886 CH2_sp3       1 RES
     614 _CH3         8.6262    26.3493    27.3357 CH3_sp3       1 RES
     615 _CH3         9.7774    23.8186    31.6901 CH3_sp3       1 RES
     616 _CH2        21.8915    13.4894    20.4562 CH2_sp3       1 RES
     617 _CH2        22.5953    14.1172    21.6737 CH2_sp3       1 RES
     618 _CH2        22.0191    15.4816    22.0956 CH2_sp3       1 RES
     619 _CH3        22.4677    12.1250    20.0343 CH3_sp3       1 RES
     620 _CH3        22.7229    16.1093    23.3131 CH3_sp3       1 RES
     621 _CH2        23.4558    23.9988    30.8634 CH2_sp3       1 RES
     622 _CH2        22.2400    24.2555    29.9538 CH2_sp3       1 RES
     623 _CH2        21.1066    23.2259    30.1177 CH2_sp3       1 RES
     624 _CH3        24.5893    25.0284    30.6995 CH3_sp3       1 RES
     625 _CH3        19.8908    23.4826    29.2080 CH3_sp3       1 RES
     626 _CH2        14.8912    24.7554    34.8091 CH2_sp3       1 RES
     627 _CH2        16.0128    25.1376    35.7928 CH2_sp3       1 RES
     628 _CH2        17.2412    24.2109    35.7329 CH2_sp3       1 RES
     629 _CH3        13.6627    25.6821    34.8690 CH3_sp3       1 RES
     630 _CH3        18.3628    24.5931    36.7166 CH3_sp3       1 RES
     631 _CH2        34.4563    15.9302    13.2319 CH2_sp3       1 RES
     632 _CH2        34.8058    14.9704    14.3843 CH2_sp3       1 RES
     633 _CH2        34.9923    13.5061    13.9452 CH2_sp3       1 RES
     634 _CH3        34.2698    17.3945    13.6710 CH3_sp3       1 RES
     635 _CH3        35.3417    12.5463    15.0977 CH3_sp3       1 RES
     636 _CH2        25.3267    10.2931    13.7156 CH2_sp3       1 RES
     637 _CH2        25.2034     9.5552    12.3695 CH2_sp3       1 RES
     638 _CH2        26.5556     9.1897    11.7294 CH2_sp3       1 RES
     639 _CH3        23.9745    10.6586    14.3557 CH3_sp3       1 RES
     640 _CH3        26.4324     8.4519    10.3833 CH3_sp3       1 RES
     641 _CH2        29.0623    32.8602    26.0014 CH2_sp3       1 RES
     642 _CH2        30.4956    32.3587    26.2579 CH2_sp3       1 RES
     643 _CH2        30.6429    31.5085    27.5334 CH2_sp3       1 RES
     644 _CH3        28.9150    33.7105    24.7259 CH3_sp3       1 RES
     645 _CH3        32.0762    31.0069    27.7898 CH3_sp3       1 RES
     646 _CH2        15.6254    27.8930    33.7817 CH2_sp3       1 RES
     647 _CH2        15.8289    27.2372    35.1602 CH2_sp3       1 RES
     648 _CH2        14.8168    27.6945    36.2270 CH2_sp3       1 RES
     649 _CH3        16.6375    27.4356    32.7149 CH3_sp3       1 RES
     650 _CH3        15.0204    27.0388    37.6054 CH3_sp3       1 RES
     651 _CH2        13.1347    12.9894    19.8346 CH2_sp3       1 RES
     652 _CH2        13.7997    12.6213    18.4952 CH2_sp3       1 RES
     653 _CH2        15.0624    11.7519    18.6409 CH2_sp3       1 RES
     654 _CH3        11.8720    13.8588    19.6890 CH3_sp3       1 RES
     655 _CH3        15.7274    11.3838    17.3015 CH3_sp3       1 RES
     656 _CH2         4.5363    30.4939    16.5309 CH2_sp3       1 RES
     657 _CH2         4.8451    31.8253    15.8211 CH2_sp3       1 RES
     658 _CH2         5.1696    32.9858    16.7801 CH2_sp3       1 RES
     659 _CH3         4.2119    29.3334    15.5719 CH3_sp3       1 RES
     660 _CH3         5.4784    34.3171    16.0703 CH3_sp3       1 RES
     661 _CH2         7.4748    29.7509     5.3005 CH2_sp3       1 RES
     662 _CH2         7.4869    29.3420     3.8158 CH2_sp3       1 RES
     663 _CH2         8.4819    28.2142     3.4849 CH2_sp3       1 RES
     664 _CH3         6.4798    30.8787     5.6315 CH3_sp3       1 RES
     665 _CH3         8.4940    27.8053     2.0002 CH3_sp3       1 RES
     666 _CH2        14.6206    18.9964    17.1077 CH2_sp3       1 RES
     667 _CH2        16.0428    19.1469    17.6790 CH2_sp3       1 RES
     668 _CH2        16.4411    20.6011    17.9927 CH2_sp3       1 RES
     669 _CH3        14.2223    17.5423    16.7940 CH3_sp3       1 RES
     670 _CH3        17.8633    20.7516    18.5640 CH3_sp3       1 RES
     671 _CH2        29.3031     7.5504    17.0313 CH2_sp3       1 RES
     672 _CH2        29.5335     7.7482    18.5411 CH2_sp3       1 RES
     673 _CH2        30.8928     8.3826    18.8895 CH2_sp3       1 RES
     674 _CH3        27.9438     6.9161    16.6829 CH3_sp3       1 RES
     675 _CH3        31.1231     8.5803    20.3993 CH3_sp3       1 RES
     676 _CH2        27.8125    26.1086    14.1503 CH2_sp3       1 RES
     677 _CH2        26.4303    25.6023    14.6027 CH2_sp3       1 RES
     678 _CH2        26.4882    24.4727    15.6478 CH2_sp3       1 RES
     679 _CH3        27.7546    27.2382    13.1052 CH3_sp3       1 RES
     680 _CH3        25.1059    23.9664    16.1001 CH3_sp3       1 RES
     681 _CH2        11.5745     3.6015    34.5321 CH2_sp3       1 RES
     682 _CH2        11.6276     4.2977    35.9047 CH2_sp3       1 RES
     683 _CH2        10.3397     5.0582    36.2716 CH2_sp3       1 RES
     684 _CH3        12.8624     2.8410    34.1653 CH3_sp3       1 RES
     685 _CH3        10.3928     5.7544    37.6442 CH3_sp3       1 RES
     686 _CH2        27.7901    11.4818    22.8008 CH2_sp3       1 RES
     687 _CH2        28.1347    11.7296    24.2811 CH2_sp3       1 RES
     688 _CH2        29.6239    12.0276    24.5362 CH2_sp3       1 RES
     689 _CH3        26.3009    11.1838    22.5457 CH3_sp3       1 RES
     690 _CH3        29.9685    12.2754    26.0165 CH3_sp3       1 RES
     691 _CH2         7.1125    31.5046     9.9295 CH2_sp3       1 RES
     692 _CH2         7.5393    31.6469    11.4023 CH2_sp3       1 RES
     693 _CH2         8.7640    32.5562    11.6145 CH2_sp3       1 RES
     694 _CH3         5.8878    30.5953     9.7174 CH3_sp3       1 RES
     695 _CH3         9.1908    32.6986    13.0873 CH3_sp3       1 RES
     696 _CH2         7.3052    23.4136    16.9044 CH2_sp3       1 RES
     697 _CH2         8.7036    22.7718    16.9693 CH2_sp3       1 RES
     698 _CH2         9.8330    23.7636    17.3050 CH2_sp3       1 RES
     699 _CH3         6.1759    22.4219    16.5687 CH3_sp3       1 RES
     700 _CH3        11.2314    23.1218    17.3699 CH3_sp3       1 RES
     701 _CH2        32.0834    11.6795    19.6314 CH2_sp3       1 RES
     702 _CH2        31.1082    11.6658    18.4397 CH2_sp3       1 RES
     703 _CH2        31.7805    11.3835    17.0833 CH2_sp3       1 RES
     704 _CH3        31.4111    11.9618    20.9878 CH3_sp3       1 RES
     705 _CH3        30.8053    11.3698    15.8915 CH3_sp3       1 RES
     706 _CH2        31.1073    28.6468    32.3137 CH2_sp3       1 RES
     707 _CH2        30.4907    27.2449    32.1525 CH2_sp3       1 RES
     708 _CH2        30.6200    26.3561    33.4035 CH2_sp3       1 RES
     709 _CH3        30.9780    29.5356    31.0627 CH3_sp3       1 RES
     710 _CH3        30.0034    24.9541    33.2423 CH3_sp3       1 RES
     711 _CH2        20.9361    36.9651     7.7000 CH2_sp3       1 RES
     712 _CH2        19.5274    36.5389     7.2467 CH2_sp3       1 RES
     713 _CH2        18.4136    36.8888     8.2510 CH2_sp3       1 RES
     714 _CH3        22.0499    36.6152     6.6958 CH3_sp3       1 RES
     715 _CH3        17.0049    36.4626     7.7977 CH3_sp3       1 RES
     716 _CH2        15.2996    33.3713    25.9350 CH2_sp3       1 RES
     717 _CH2        14.0536    33.1117    26.8020 CH2_sp3       1 RES
     718 _CH2        13.7556    31.6196    27.0396 CH2_sp3       1 RES
     719 _CH3        15.5976    34.8634    25.6974 CH3_sp3       1 RES
     720 _CH3        12.5096    31.3600    27.9066 CH3_sp3       1 RES
     721 _CH2        17.3885    31.1728    22.0848 CH2_sp3       1 RES
     722 _CH2        15.9198    31.1342    21.6232 CH2_sp3       1 RES
     723 _CH2        15.7452    31.0689    20.0945 CH2_sp3       1 RES
     724 _CH3        17.5632    31.2381    23.6135 CH3_sp3       1 RES
     725 _CH3        14.2765    31.0303    19.6330 CH3_sp3       1 RES
     726 _CH2        11.6599    36.4525    15.7711 CH2_sp3       1 RES
     727 _CH2        12.1858    35.4094    16.7745 CH2_sp3       1 RES
     728 _CH2        11.1981    35.0775    17.9084 CH2_sp3       1 RES
     729 _CH3        12.6477    36.7844    14.6372 CH3_sp3       1 RES
     730 _CH3        11.7240    34.0343    18.9119 CH3_sp3       1 RES
     731 _CH2        14.8895    34.1756    10.0406 CH2_sp3       1 RES
     732 _CH2        15.0038    35.2423    11.1455 CH2_sp3       1 RES
     733 _CH2        14.6511    36.6671    10.6794 CH2_sp3       1 RES
     734 _CH3        15.2421    32.7508    10.5067 CH3_sp3       1 RES
     735 _CH3        14.7654    37.7338    11.7843 CH3_sp3       1 RES
     736 _CH2        12.0789    15.0850    25.8002 CH2_sp3       1 RES
     737 _CH2        12.4792    15.0939    27.2873 CH2_sp3       1 RES
     738 _CH2        11.5092    14.3227    28.2017 CH2_sp3       1 RES
     739 _CH3        13.0489    15.8562    24.8859 CH3_sp3       1 RES
     740 _CH3        11.9094    14.3317    29.6887 CH3_sp3       1 RES
     741 _CH2        33.6273    32.4230    25.5245 CH2_sp3       1 RES
     742 _CH2        33.1828    33.7630    24.9093 CH2_sp3       1 RES
     743 _CH2        33.1853    34.9397    25.9026 CH2_sp3       1 RES
     744 _CH3        33.6248    31.2462    24.5311 CH3_sp3       1 RES
     745 _CH3        32.7408    36.2797    25.2874 CH3_sp3       1 RES
     746 _CH2        27.6485    37.5890    26.2204 CH2_sp3       1 RES
     747 _CH2        28.2126    37.5042    27.6509 CH2_sp3       1 RES
     748 _CH2        29.7478    37.4013    27.7138 CH2_sp3       1 RES
     749 _CH3        26.1133    37.6919    26.1575 CH3_sp3       1 RES
     750 _CH3        30.3119    37.3166    29.1443 CH3_sp3       1 RES
     751 _CH2        11.2811    17.4807    23.5224 CH2_sp3       1 RES
     752 _CH2        10.3990    18.0379    22.3897 CH2_sp3       1 RES
     753 _CH2        10.4250    19.5732    22.2731 CH2_sp3       1 RES
     754 _CH3        11.2551    15.9453    23.6390 CH3_sp3       1 RES
     755 _CH3         9.5429    20.1304    21.1403 CH3_sp3       1 RES
     756 _CH2        11.1583    12.5507    22.7222 CH2_sp3       1 RES
     757 _CH2        11.4186    12.3017    21.2249 CH2_sp3       1 RES
     758 _CH2        10.3746    11.3926    20.5503 CH2_sp3       1 RES
     759 _CH3        12.2024    13.4599    23.3967 CH3_sp3       1 RES
     760 _CH3        10.6348    11.1436    19.0531 CH3_sp3       1 RES
     761 _CH2        26.7790    17.6870     5.8088 CH2_sp3       1 RES
     762 _CH2        25.9568    17.8906     4.5226 CH2_sp3       1 RES
     763 _CH2        26.8114    18.1350     3.2650 CH2_sp3       1 RES
     764 _CH3        25.9245    17.4426     7.0664 CH3_sp3       1 RES
     765 _CH3        25.9892    18.3385     1.9789 CH3_sp3       1 RES
     766 _CH2        20.0876    26.4940     8.1693 CH2_sp3       1 RES
     767 _CH2        20.7982    25.6976     9.2796 CH2_sp3       1 RES
     768 _CH2        21.4477    26.5775    10.3638 CH2_sp3       1 RES
     769 _CH3        19.4381    25.6141     7.0851 CH3_sp3       1 RES
     770 _CH3        22.1582    25.7811    11.4741 CH3_sp3       1 RES
     771 _CH2         3.5284     5.8835    18.8444 CH2_sp3       1 RES
     772 _CH2         3.8850     4.3859    18.8866 CH2_sp3       1 RES
     773 _CH2         5.2454     4.0842    19.5422 CH2_sp3       1 RES
     774 _CH3         2.1680     6.1852    18.1889 CH3_sp3       1 RES
     775 _CH3         5.6020     2.5867    19.5844 CH3_sp3       1 RES
     776 _CH2        35.9048    29.4873     6.2122 CH2_sp3       1 RES
     777 _CH2        36.5190    28.9376     7.5131 CH2_sp3       1 RES
     778 _CH2        37.9073    29.5163     7.8436 CH2_sp3       1 RES
     779 _CH3        34.5165    28.9086     5.8816 CH3_sp3       1 RES
     780 _CH3        38.5215    28.9667     9.1445 CH3_sp3       1 RES
     781 _CH2        31.4919    17.4135    15.0642 CH2_sp3       1 RES
     782 _CH2        30.7182    16.7412    16.2135 CH2_sp3       1 RES
     783 _CH2        30.0878    15.3876    15.8365 CH2_sp3       1 RES
     784 _CH3        32.1224    18.7670    15.4411 CH3_sp3       1 RES
     785 _CH3        29.3140    14.7153    16.9858 CH3_sp3       1 RES
     786 _CH2        18.5707    30.8882    19.0312 CH2_sp3       1 RES
     787 _CH2        19.4919    32.0723    18.6834 CH2_sp3       1 RES
     788 _CH2        18.8983    33.4505    19.0297 CH2_sp3       1 RES
     789 _CH3        19.1644    29.5101    18.6849 CH3_sp3       1 RES
     790 _CH3        19.8195    34.6346    18.6820 CH3_sp3       1 RES
     791 _CH2        29.3545    17.5916    24.1850 CH2_sp3       1 RES
     792 _CH2        28.7957    18.6728    23.2415 CH2_sp3       1 RES
     793 _CH2        28.7968    20.0905    23.8430 CH2_sp3       1 RES
     794 _CH3        29.3534    16.1740    23.5835 CH3_sp3       1 RES
     795 _CH3        28.2380    21.1717    22.8995 CH3_sp3       1 RES
     796 _CH2        16.0396    22.2285    21.9059 CH2_sp3       1 RES
     797 _CH2        14.6125    21.7145    21.6401 CH2_sp3       1 RES
     798 _CH2        13.6076    22.0501    22.7578 CH2_sp3       1 RES
     799 _CH3        17.0445    21.8929    20.7883 CH3_sp3       1 RES
     800 _CH3        12.1804    21.5362    22.4920 CH3_sp3       1 RES
     801 _CH2        25.1252    32.0902    31.0125 CH2_sp3       1 RES
     802 _CH2        26.0117    33.1347    30.3092 CH2_sp3       1 RES
     803 _CH2        25.6821    33.3340    28.8181 CH2_sp3       1 RES
     804 _CH3        25.4549    31.8909    32.5036 CH3_sp3       1 RES
     805 _CH3        26.5686    34.3785    28.1148 CH3_sp3       1 RES
     806 _CH2        25.8839    11.6507    28.6227 CH2_sp3       1 RES
     807 _CH2        26.2441    12.1450    27.2094 CH2_sp3       1 RES
     808 _CH2        27.2615    13.3009    27.1904 CH2_sp3       1 RES
     809 _CH3        24.8665    10.4948    28.6416 CH3_sp3       1 RES
     810 _CH3        27.6217    13.7952    25.7771 CH3_sp3       1 RES
     811 _CH2        24.8080    16.8620    25.2127 CH2_sp3       1 RES
     812 _CH2        24.6545    16.2135    26.6011 CH2_sp3       1 RES
     813 _CH2        24.1852    14.7474    26.5592 CH2_sp3       1 RES
     814 _CH3        25.2772    18.3281    25.2545 CH3_sp3       1 RES
     815 _CH3        24.0318    14.0990    27.9476 CH3_sp3       1 RES
     816 _CH2        15.4539    29.2585    24.0268 CH2_sp3       1 RES
     817 _CH2        16.0301    29.0073    25.4327 CH2_sp3       1 RES
     818 _CH2        17.4504    28.4120    25.4304 CH2_sp3       1 RES
     819 _CH3        14.0336    29.8537    24.0292 CH3_sp3       1 RES
     820 _CH3        18.0267    28.1609    26.8363 CH3_sp3       1 RES
     821 _CH2        29.5583    35.9278    17.7773 CH2_sp3       1 RES
     822 _CH2        30.4900    34.8415    17.2085 CH2_sp3       1 RES
     823 _CH2        30.8402    35.0328    15.7211 CH2_sp3       1 RES
     824 _CH3        29.2081    35.7366    19.2647 CH3_sp3       1 RES
     825 _CH3        31.7719    33.9465    15.1523 CH3_sp3       1 RES
     826 _CH2        12.1881     5.8213    20.6211 CH2_sp3       1 RES
     827 _CH2        11.0249     4.8931    20.2248 CH2_sp3       1 RES
     828 _CH2        10.1501     5.4386    19.0808 CH2_sp3       1 RES
     829 _CH3        13.0630     5.2758    21.7650 CH3_sp3       1 RES
     830 _CH3         8.9869     4.5104    18.6845 CH3_sp3       1 RES
     831 _CH2         7.1785     5.6576    33.3275 CH2_sp3       1 RES
     832 _CH2         5.6435     5.7540    33.4064 CH2_sp3       1 RES
     833 _CH2         5.1294     7.0668    34.0258 CH2_sp3       1 RES
     834 _CH3         7.6926     4.3447    32.7080 CH3_sp3       1 RES
     835 _CH3         3.5945     7.1633    34.1047 CH3_sp3       1 RES
     836 _CH2        11.0013    17.8394     4.3134 CH2_sp3       1 RES
     837 _CH2        11.8016    18.8641     3.4881 CH2_sp3       1 RES
     838 _CH2        13.3018    18.5375     3.3683 CH2_sp3       1 RES
     839 _CH3         9.5011    18.1660     4.4331 CH3_sp3       1 RES
     840 _CH3        14.1020    19.5622     2.5430 CH3_sp3       1 RES
     841 _CH2        37.4787    35.4324    25.5993 CH2_sp3       1 RES
     842 _CH2        36.6702    34.4053    24.7851 CH2_sp3       1 RES
     843 _CH2        37.2999    33.0004    24.7471 CH2_sp3       1 RES
     844 _CH3        36.8489    36.8372    25.6373 CH3_sp3       1 RES
     845 _CH3        36.4914    31.9733    23.9329 CH3_sp3       1 RES
     846 _CH2        29.7916    37.9795    14.4197 CH2_sp3       1 RES
     847 _CH2        30.3956    37.5981    13.0554 CH2_sp3       1 RES
     848 _CH2        31.8052    36.9842    13.1441 CH2_sp3       1 RES
     849 _CH3        28.3820    38.5935    14.3311 CH3_sp3       1 RES
     850 _CH3        32.4092    36.6028    11.7798 CH3_sp3       1 RES
     851 _CH2        26.2747    16.3160    15.3988 CH2_sp3       1 RES
     852 _CH2        25.8484    15.5832    16.6844 CH2_sp3       1 RES
     853 _CH2        24.5658    14.7447    16.5316 CH2_sp3       1 RES
     854 _CH3        27.5573    17.1545    15.5517 CH3_sp3       1 RES
     855 _CH3        24.1395    14.0119    17.8172 CH3_sp3       1 RES
     856 _CH2        31.2297    31.1889    34.1870 CH2_sp3       1 RES
     857 _CH2        31.4730    31.6044    35.6497 CH2_sp3       1 RES
     858 _CH2        31.4249    30.4342    36.6496 CH2_sp3       1 RES
     859 _CH3        31.2778    32.3592    33.1871 CH3_sp3       1 RES
     860 _CH3        31.6681    30.8497    38.1124 CH3_sp3       1 RES
     861 _CH2        14.7519     7.9193    24.4244 CH2_sp3       1 RES
     862 _CH2        15.8866     7.0720    25.0296 CH2_sp3       1 RES
     863 _CH2        15.5117     6.3754    26.3509 CH2_sp3       1 RES
     864 _CH3        15.1268     8.6159    23.1031 CH3_sp3       1 RES
     865 _CH3        16.6464     5.5282    26.9562 CH3_sp3       1 RES
     866 _CH2         9.5577    10.2005    16.7361 CH2_sp3       1 RES
     867 _CH2         9.9671    10.3665    15.2608 CH2_sp3       1 RES
     868 _CH2         9.6371    11.7503    14.6711 CH2_sp3       1 RES
     869 _CH3         9.8876     8.8167    17.3258 CH3_sp3       1 RES
     870 _CH3        10.0465    11.9163    13.1958 CH3_sp3       1 RES
     871 _CH2        18.9897    11.2555    19.2141 CH2_sp3       1 RES
     872 _CH2        18.2322    10.3001    18.2734 CH2_sp3       1 RES
     873 _CH2        16.7837    10.0102    18.7087 CH2_sp3       1 RES
     874 _CH3        20.4382    11.5454    18.7788 CH3_sp3       1 RES
     875 _CH3        16.0263     9.0548    17.7679 CH3_sp3       1 RES
     876 _CH2        24.1747    31.0161    20.1205 CH2_sp3       1 RES
     877 _CH2        23.7367    30.7458    18.6690 CH2_sp3       1 RES
     878 _CH2        22.7291    29.5902    18.5238 CH2_sp3       1 RES
     879 _CH3        25.1823    32.1717    20.2658 CH3_sp3       1 RES
     880 _CH3        22.2912    29.3198    17.0723 CH3_sp3       1 RES
     881 _CH2         4.1907    20.8765    11.5270 CH2_sp3       1 RES
     882 _CH2         4.5419    22.2527    12.1222 CH2_sp3       1 RES
     883 _CH2         4.2904    22.3624    13.6376 CH2_sp3       1 RES
     884 _CH3         4.4421    20.7669    10.0116 CH3_sp3       1 RES
     885 _CH3         4.6417    23.7385    14.2329 CH3_sp3       1 RES
     886 _CH2        12.4454     3.2496    19.8838 CH2_sp3       1 RES
     887 _CH2        13.3283     4.0261    18.8893 CH2_sp3       1 RES
     888 _CH2        12.5381     4.9219    17.9173 CH2_sp3       1 RES
     889 _CH3        13.2355     2.3538    20.8558 CH3_sp3       1 RES
     890 _CH3        13.4211     5.6984    16.9227 CH3_sp3       1 RES
     891 _CH2        17.1815    17.2003    28.5522 CH2_sp3       1 RES
     892 _CH2        17.9505    17.5187    27.2565 CH2_sp3       1 RES
     893 _CH2        18.9384    18.6929    27.3870 CH2_sp3       1 RES
     894 _CH3        16.1936    16.0261    28.4218 CH3_sp3       1 RES
     895 _CH3        19.7074    19.0114    26.0913 CH3_sp3       1 RES
     896 _CH2        19.8303    36.9657    34.3425 CH2_sp3       1 RES
     897 _CH2        20.2860    36.2170    35.6088 CH2_sp3       1 RES
     898 _CH2        19.6145    34.8445    35.8007 CH2_sp3       1 RES
     899 _CH3        20.5018    38.3382    34.1506 CH3_sp3       1 RES
     900 _CH3        20.0702    34.0958    37.0670 CH3_sp3       1 RES
     901 _CH2         8.6837    28.8521    18.1011 CH2_sp3       1 RES
     902 _CH2         9.2290    30.0408    17.2880 CH2_sp3       1 RES
     903 _CH2         9.7291    31.2137    18.1517 CH2_sp3       1 RES
     904 _CH3         8.1837    27.6793    17.2374 CH3_sp3       1 RES
     905 _CH3        10.2744    32.4024    17.3386 CH3_sp3       1 RES
     906 _CH2        28.6818    30.5829    22.7223 CH2_sp3       1 RES
     907 _CH2        29.1601    29.1192    22.7022 CH2_sp3       1 RES
     908 _CH2        30.3637    28.8409    23.6217 CH2_sp3       1 RES
     909 _CH3        27.4782    30.8613    21.8028 CH3_sp3       1 RES
     910 _CH3        30.8420    27.3772    23.6016 CH3_sp3       1 RES
     911 _CH2        11.2624    11.9292     3.5104 CH2_sp3       1 RES
     912 _CH2        12.6997    12.1717     3.0135 CH2_sp3       1 RES
     913 _CH2        13.4061    10.9045     2.4970 CH2_sp3       1 RES
     914 _CH3        10.5561    13.1964     4.0269 CH3_sp3       1 RES
     915 _CH3        14.8434    11.1470     2.0000 CH3_sp3       1 RES
     916 _CH2        16.4115    15.8762     3.2034 CH2_sp3       1 RES
     917 _CH2        15.3606    16.3571     4.2211 CH2_sp3       1 RES
     918 _CH2        13.9130    15.9853     3.8498 CH2_sp3       1 RES
     919 _CH3        17.8591    16.2481     3.5747 CH3_sp3       1 RES
     920 _CH3        12.8620    16.4662     4.8676 CH3_sp3       1 RES
     921 _CH2         7.8649    13.4863    11.0836 CH2_sp3       1 RES
     922 _CH2         8.8883    12.9267    10.0781 CH2_sp3       1 RES
     923 _CH2        10.2837    12.6752    10.6791 CH2_sp3       1 RES
     924 _CH3         6.4694    13.7378    10.4827 CH3_sp3       1 RES
     925 _CH3        11.3072    12.1157     9.6736 CH3_sp3       1 RES
     926 _CH2        18.7889    24.3429    32.6849 CH2_sp3       1 RES
     927 _CH2        18.2504    23.7817    31.3557 CH2_sp3       1 RES
     928 _CH2        18.8514    22.4197    30.9615 CH2_sp3       1 RES
     929 _CH3        18.1879    25.7048    33.0791 CH3_sp3       1 RES
     930 _CH3        18.3129    21.8586    29.6323 CH3_sp3       1 RES
     931 _CH2        12.7332    19.5506    27.6123 CH2_sp3       1 RES
     932 _CH2        12.4188    21.0339    27.3429 CH2_sp3       1 RES
     933 _CH2        12.7175    21.4856    25.9012 CH2_sp3       1 RES
     934 _CH3        12.4345    19.0989    29.0540 CH3_sp3       1 RES
     935 _CH3        12.4032    22.9689    25.6317 CH3_sp3       1 RES
     936 _CH2         6.9524    36.8499    29.9478 CH2_sp3       1 RES
     937 _CH2         5.9104    36.9143    28.8157 CH2_sp3       1 RES
     938 _CH2         4.4614    36.6850    29.2843 CH2_sp3       1 RES
     939 _CH3         8.4013    37.0793    29.4792 CH3_sp3       1 RES
     940 _CH3         3.4194    36.7493    28.1522 CH3_sp3       1 RES
     941 _CH2        16.6991     8.6460    34.8269 CH2_sp3       1 RES
     942 _CH2        16.1621     8.4743    36.2600 CH2_sp3       1 RES
     943 _CH2        17.0380     7.5767    37.1537 CH2_sp3       1 RES
     944 _CH3        15.8233     9.5437    33.9331 CH3_sp3       1 RES
     945 _CH3        16.5010     7.4049    38.5868 CH3_sp3       1 RES
     946 _CH2        33.1044    13.9035    18.5153 CH2_sp3       1 RES
     947 _CH2        33.5650    12.8190    17.5237 CH2_sp3       1 RES
     948 _CH2        33.7127    11.4198    18.1498 CH2_sp3       1 RES
     949 _CH3        32.9566    15.3027    17.8893 CH3_sp3       1 RES
     950 _CH3        34.1733    10.3353    17.1582 CH3_sp3       1 RES
     951 _CH2         4.1623    22.5804    17.5657 CH2_sp3       1 RES
     952 _CH2         3.2448    21.6764    18.4098 CH2_sp3       1 RES
     953 _CH2         3.3757    21.8946    19.9286 CH2_sp3       1 RES
     954 _CH3         4.0314    22.3622    16.0469 CH3_sp3       1 RES
     955 _CH3         2.4582    20.9906    20.7727 CH3_sp3       1 RES
     956 _CH2        12.9183    29.2005    34.9453 CH2_sp3       1 RES
     957 _CH2        12.9561    29.3684    36.4757 CH2_sp3       1 RES
     958 _CH2        14.3506    29.7070    37.0344 CH2_sp3       1 RES
     959 _CH3        11.5237    28.8618    34.3866 CH3_sp3       1 RES
     960 _CH3        14.3884    29.8749    38.5647 CH3_sp3       1 RES
     961 _CH2        15.6968    25.4637    13.0829 CH2_sp3       1 RES
     962 _CH2        16.2235    24.1835    12.4081 CH2_sp3       1 RES
     963 _CH2        17.1419    24.4447    11.1999 CH2_sp3       1 RES
     964 _CH3        14.7783    25.2025    14.2911 CH3_sp3       1 RES
     965 _CH3        17.6686    23.1645    10.5252 CH3_sp3       1 RES
     966 _CH2        24.3963    30.8495    26.9556 CH2_sp3       1 RES
     967 _CH2        24.3449    30.1557    28.3295 CH2_sp3       1 RES
     968 _CH2        23.4931    30.8991    29.3751 CH2_sp3       1 RES
     969 _CH3        25.2481    30.1061    25.9100 CH3_sp3       1 RES
     970 _CH3        23.4417    30.2053    30.7490 CH3_sp3       1 RES
     971 _CH2        18.0539    10.1920    25.2014 CH2_sp3       1 RES
     972 _CH2        16.5335     9.9518    25.2468 CH2_sp3       1 RES
     973 _CH2        15.6922    11.1995    24.9193 CH2_sp3       1 RES
     974 _CH3        18.8952     8.9443    25.5289 CH3_sp3       1 RES
     975 _CH3        14.1717    10.9594    24.9648 CH3_sp3       1 RES
     976 _CH2        35.1683     6.2420    15.7593 CH2_sp3       1 RES
     977 _CH2        35.2398     5.8275    14.2778 CH2_sp3       1 RES
     978 _CH2        35.5031     4.3260    14.0595 CH2_sp3       1 RES
     979 _CH3        34.9050     7.7435    15.9776 CH3_sp3       1 RES
     980 _CH3        35.5746     3.9115    12.5780 CH3_sp3       1 RES
     981 _CH2         4.6932     8.5489    29.4236 CH2_sp3       1 RES
     982 _CH2         5.6098     8.4673    28.1888 CH2_sp3       1 RES
     983 _CH2         6.4642     9.7277    27.9585 CH2_sp3       1 RES
     984 _CH3         3.8389     7.2885    29.6539 CH3_sp3       1 RES
     985 _CH3         7.3808     9.6462    26.7237 CH3_sp3       1 RES
     986 _CH2        12.1326     2.8065    17.4819 CH2_sp3       1 RES
     987 _CH2        11.4835     2.1782    16.2346 CH2_sp3       1 RES
     988 _CH2        10.3028     2.9883    15.6676 CH2_sp3       1 RES
     989 _CH3        13.3132     1.9964    18.0488 CH3_sp3       1 RES
     990 _CH3         9.6537     2.3600    14.4204 CH3_sp3       1 RES
     991 _CH2        27.1224    17.3988    18.1591 CH2_sp3       1 RES
     992 _CH2        26.3993    17.8366    19.4463 CH2_sp3       1 RES
     993 _CH2        25.1605    16.9881    19.7884 CH2_sp3       1 RES
     994 _CH3        28.3612    18.2473    17.8169 CH3_sp3       1 RES
     995 _CH3        24.4374    17.4260    21.0757 CH3_sp3       1 RES
     996 _CH2        12.7406    29.8624    10.2663 CH2_sp3       1 RES
     997 _CH2        13.5184    30.3499     9.0298 CH2_sp3       1 RES
     998 _CH2        14.9345    29.7572     8.9068 CH2_sp3       1 RES
     999 _CH3        11.3245    30.4550    10.3893 CH3_sp3       1 RES
    1000 _CH3        15.7123    30.2447     7.6703 CH3_sp3       1 RES
    1001 _CH2        18.0980    24.2361    19.5261 CH2_sp3       1 RES
    1002 _CH2        18.6167    24.5586    20.9398 CH2_sp3       1 RES
    1003 _CH2        20.1429    24.7478    21.0190 CH2_sp3       1 RES
    1004 _CH3        16.5717    24.0469    19.4469 CH3_sp3       1 RES
    1005 _CH3        20.6616    25.0703    22.4327 CH3_sp3       1 RES
    1006 _CH2        23.2584    31.3148    13.7783 CH2_sp3       1 RES
    1007 _CH2        24.0648    30.8203    14.9935 CH2_sp3       1 RES
    1008 _CH2        23.7480    29.3713    15.4079 CH2_sp3       1 RES
    1009 _CH3        23.5752    32.7637    13.3639 CH3_sp3       1 RES
    1010 _CH3        24.5544    28.8768    16.6231 CH3_sp3       1 RES
    1011 _CH2        35.7802    26.3606    10.4025 CH2_sp3       1 RES
    1012 _CH2        36.1881    25.9714    11.8356 CH2_sp3       1 RES
    1013 _CH2        36.9859    24.6572    11.9247 CH2_sp3       1 RES
    1014 _CH3        34.9824    27.6748    10.3134 CH3_sp3       1 RES
    1015 _CH3        37.3938    24.2680    13.3578 CH3_sp3       1 RES
    1016 _CH2         8.4163     5.6260    28.8928 CH2_sp3       1 RES
    1017 _CH2         8.5636     5.8125    30.4143 CH2_sp3       1 RES
    1018 _CH2         9.8820     5.2612    30.9882 CH2_sp3       1 RES
    1019 _CH3         7.0979     6.1773    28.3189 CH3_sp3       1 RES
    1020 _CH3        10.0293     5.4477    32.5098 CH3_sp3       1 RES
    1021 _CH2        33.7391    37.1225    33.8847 CH2_sp3       1 RES
    1022 _CH2        33.0347    36.3627    32.7454 CH2_sp3       1 RES
    1023 _CH2        31.5045    36.5353    32.7298 CH2_sp3       1 RES
    1024 _CH3        35.2694    36.9499    33.9003 CH3_sp3       1 RES
    1025 _CH3        30.8001    35.7755    31.5904 CH3_sp3       1 RES
    1026 _CH2        32.4295    33.9317    10.7462 CH2_sp3       1 RES
    1027 _CH2        33.1481    33.7576    12.0971 CH2_sp3       1 RES
    1028 _CH2        32.6037    32.5976    12.9512 CH2_sp3       1 RES
    1029 _CH3        32.9739    35.0917     9.8920 CH3_sp3       1 RES
    1030 _CH3        33.3222    32.4234    14.3021 CH3_sp3       1 RES
    1031 _CH2        25.2864    23.2208    27.8185 CH2_sp3       1 RES
    1032 _CH2        24.9160    22.7281    29.2297 CH2_sp3       1 RES
    1033 _CH2        24.4980    21.2470    29.2864 CH2_sp3       1 RES
    1034 _CH3        25.7043    24.7019    27.7618 CH3_sp3       1 RES
    1035 _CH3        24.1276    20.7542    30.6977 CH3_sp3       1 RES
    1036 _CH2         2.0420    22.3861    10.2836 CH2_sp3       1 RES
    1037 _CH2         1.9268    22.8257     8.8122 CH2_sp3       1 RES
    1038 _CH2         2.0547    24.3457     8.6008 CH2_sp3       1 RES
    1039 _CH3         1.9142    20.8660    10.4951 CH3_sp3       1 RES
    1040 _CH3         1.9395    24.7853     7.1293 CH3_sp3       1 RES
    1041 _CH2        18.6555     7.2811    14.8605 CH2_sp3       1 RES
    1042 _CH2        18.2319     6.5812    13.5558 CH2_sp3       1 RES
    1043 _CH2        17.1467     7.3346    12.7646 CH2_sp3       1 RES
    1044 _CH3        19.7408     6.5276    15.6518 CH3_sp3       1 RES
    1045 _CH3        16.7231     6.6347    11.4599 CH3_sp3       1 RES
    1046 _CH2        11.3137    17.0081    26.8376 CH2_sp3       1 RES
    1047 _CH2        10.6600    18.3153    26.3524 CH2_sp3       1 RES
    1048 _CH2        11.3899    18.9794    25.1701 CH2_sp3       1 RES
    1049 _CH3        10.5838    16.3440    28.0199 CH3_sp3       1 RES
    1050 _CH3        10.7362    20.2867    24.6849 CH3_sp3       1 RES
    1051 _CH2         8.9081    14.4009    19.4511 CH2_sp3       1 RES
    1052 _CH2         9.3000    15.8680    19.7073 CH2_sp3       1 RES
    1053 _CH2        10.7616    16.0570    20.1541 CH2_sp3       1 RES
    1054 _CH3         7.4465    14.2119    19.0043 CH3_sp3       1 RES
    1055 _CH3        11.1535    17.5241    20.4104 CH3_sp3       1 RES
    1056 _CH2        21.7202     7.6611    14.9377 CH2_sp3       1 RES
    1057 _CH2        21.2216     7.9927    13.5189 CH2_sp3       1 RES
    1058 _CH2        20.0858     9.0320    13.4811 CH2_sp3       1 RES
    1059 _CH3        22.8560     6.6218    14.9755 CH3_sp3       1 RES
    1060 _CH3        19.5872     9.3637    12.0623 CH3_sp3       1 RES
    1061 _CH2        33.2054    22.1908    21.6385 CH2_sp3       1 RES
    1062 _CH2        33.6216    23.3057    22.6160 CH2_sp3       1 RES
    1063 _CH2        32.4527    24.1853    23.0972 CH2_sp3       1 RES
    1064 _CH3        34.3743    21.3112    21.1572 CH3_sp3       1 RES
    1065 _CH3        32.8689    25.3002    24.0747 CH3_sp3       1 RES
    1066 _CH2        15.5588    27.7435    18.5752 CH2_sp3       1 RES
    1067 _CH2        15.1575    26.4855    17.7828 CH2_sp3       1 RES
    1068 _CH2        14.1963    25.5492    18.5385 CH2_sp3       1 RES
    1069 _CH3        16.5200    28.6797    17.8195 CH3_sp3       1 RES
    1070 _CH3        13.7951    24.2912    17.7461 CH3_sp3       1 RES
    1071 _CH2        26.8430    36.7612    23.0211 CH2_sp3       1 RES
    1072 _CH2        28.2453    37.0969    22.4803 CH2_sp3       1 RES
    1073 _CH2        29.0887    35.8609    22.1162 CH2_sp3       1 RES
    1074 _CH3        25.9996    37.9972    23.3852 CH3_sp3       1 RES
    1075 _CH3        30.4910    36.1966    21.5754 CH3_sp3       1 RES
    1076 _CH2        33.5249    20.4843    27.4495 CH2_sp3       1 RES
    1077 _CH2        32.6672    21.2046    28.5064 CH2_sp3       1 RES
    1078 _CH2        31.5024    22.0216    27.9170 CH2_sp3       1 RES
    1079 _CH3        34.6897    19.6673    28.0389 CH3_sp3       1 RES
    1080 _CH3        30.6447    22.7419    28.9740 CH3_sp3       1 RES
    1081 _CH2        16.7897    20.4891    26.7480 CH2_sp3       1 RES
    1082 _CH2        16.1896    21.8838    26.4909 CH2_sp3       1 RES
    1083 _CH2        15.4501    22.0093    25.1459 CH2_sp3       1 RES
    1084 _CH3        17.5292    20.3636    28.0930 CH3_sp3       1 RES
    1085 _CH3        14.8501    23.4041    24.8887 CH3_sp3       1 RES
    1086 _CH2        11.4874    31.7731    24.9800 CH2_sp3       1 RES
    1087 _CH2        11.8674    31.5803    23.5002 CH2_sp3       1 RES
    1088 _CH2        13.3170    31.9808    23.1684 CH2_sp3       1 RES
    1089 _CH3        10.0379    31.3727    25.3118 CH3_sp3       1 RES
    1090 _CH3        13.6969    31.7879    21.6885 CH3_sp3       1 RES
    1091 _CH2        16.1142    31.0800    32.6994 CH2_sp3       1 RES
    1092 _CH2        15.7460    31.9143    33.9404 CH2_sp3       1 RES
    1093 _CH2        14.2353    32.1671    34.0996 CH2_sp3       1 RES
    1094 _CH3        17.6249    30.8272    32.5403 CH3_sp3       1 RES
    1095 _CH3        13.8671    33.0013    35.3406 CH3_sp3       1 RES
    1096 _CH2        23.6720    16.9403    36.4016 CH2_sp3       1 RES
    1097 _CH2        23.6317    18.4643    36.6198 CH2_sp3       1 RES
    1098 _CH2        24.3581    18.9340    37.8939 CH2_sp3       1 RES
    1099 _CH3        22.9455    16.4706    35.1275 CH3_sp3       1 RES
    1100 _CH3        24.3179    20.4579    38.1122 CH3_sp3       1 RES
    1101 _CH2         7.3482    31.4915    18.0223 CH2_sp3       1 RES
    1102 _CH2         6.9856    30.8964    16.6490 CH2_sp3       1 RES
    1103 _CH2         7.5464    31.6903    15.4545 CH2_sp3       1 RES
    1104 _CH3         6.7874    30.6976    19.2168 CH3_sp3       1 RES
    1105 _CH3         7.1838    31.0953    14.0812 CH3_sp3       1 RES
    1106 _CH2        25.1665    21.2431    33.7479 CH2_sp3       1 RES
    1107 _CH2        24.5942    21.8270    35.0529 CH2_sp3       1 RES
    1108 _CH2        25.0730    23.2577    35.3619 CH2_sp3       1 RES
    1109 _CH3        24.6877    19.8124    33.4389 CH3_sp3       1 RES
    1110 _CH3        24.5006    23.8416    36.6669 CH3_sp3       1 RES
    1111 _CH2        21.3642    12.3956     4.0665 CH2_sp3       1 RES
    1112 _CH2        22.2064    11.2310     4.6195 CH2_sp3       1 RES
    1113 _CH2        22.6255    10.2003     3.5548 CH2_sp3       1 RES
    1114 _CH3        20.9450    13.4263     5.1312 CH3_sp3       1 RES
    1115 _CH3        23.4678     9.0356     4.1078 CH3_sp3       1 RES
    1116 _CH2        33.9782    27.5407    17.5127 CH2_sp3       1 RES
    1117 _CH2        33.8980    29.0695    17.3460 CH2_sp3       1 RES
    1118 _CH2        34.6738    29.6085    16.1297 CH2_sp3       1 RES
    1119 _CH3        33.2025    27.0017    18.7290 CH3_sp3       1 RES
    1120 _CH3        34.5936    31.1374    15.9630 CH3_sp3       1 RES
    1121 _CH2        26.2555     8.7536    27.4345 CH2_sp3       1 RES
    1122 _CH2        26.1148     9.6805    26.2128 CH2_sp3       1 RES
    1123 _CH2        24.8837    10.6041    26.2657 CH2_sp3       1 RES
    1124 _CH3        27.4866     7.8300    27.3816 CH3_sp3       1 RES
    1125 _CH3        24.7430    11.5310    25.0440 CH3_sp3       1 RES
    1126 _CH2        26.8200     3.3732    34.9310 CH2_sp3       1 RES
    1127 _CH2        26.6126     4.1844    36.2236 CH2_sp3       1 RES
    1128 _CH2        25.8482     5.5054    36.0182 CH2_sp3       1 RES
    1129 _CH3        27.5844     2.0522    35.1364 CH3_sp3       1 RES
    1130 _CH3        25.6408     6.3165    37.3108 CH3_sp3       1 RES
    1131 _CH2        35.4134    22.6063    34.8216 CH2_sp3       1 RES
    1132 _CH2        34.3802    23.3232    33.9326 CH2_sp3       1 RES
    1133 _CH2        34.8168    23.4764    32.4638 CH2_sp3       1 RES
    1134 _CH3        34.9768    22.4531    36.2905 CH3_sp3       1 RES
    1135 _CH3        33.7837    24.1933    31.5748 CH3_sp3       1 RES
    1136 _CH2        21.9040    32.5608    27.6927 CH2_sp3       1 RES
    1137 _CH2        20.9343    33.0997    26.6246 CH2_sp3       1 RES
    1138 _CH2        20.7573    34.6292    26.6538 CH2_sp3       1 RES
    1139 _CH3        22.0810    31.0313    27.6634 CH3_sp3       1 RES
    1140 _CH3        19.7877    35.1681    25.5857 CH3_sp3       1 RES
    1141 _CH2        36.4010    11.7078    34.8643 CH2_sp3       1 RES
    1142 _CH2        35.0095    11.0513    34.9296 CH2_sp3       1 RES
    1143 _CH2        34.7945     9.9345    33.8912 CH2_sp3       1 RES
    1144 _CH3        36.6160    12.8246    35.9027 CH3_sp3       1 RES
    1145 _CH3        33.4030     9.2779    33.9565 CH3_sp3       1 RES
    1146 _CH2        25.9011    36.2279    15.8052 CH2_sp3       1 RES
    1147 _CH2        27.3056    35.6573    15.5344 CH2_sp3       1 RES
    1148 _CH2        27.9146    36.1028    14.1920 CH2_sp3       1 RES
    1149 _CH3        25.2921    35.7824    17.1477 CH3_sp3       1 RES
    1150 _CH3        29.3191    35.5322    13.9212 CH3_sp3       1 RES
    1151 _CH2         7.4259     7.7222    14.7335 CH2_sp3       1 RES
    1152 _CH2         8.3328     7.8629    13.4968 CH2_sp3       1 RES
    1153 _CH2         9.7623     7.3289    13.7043 CH2_sp3       1 RES
    1154 _CH3         5.9964     8.2562    14.5260 CH3_sp3       1 RES
    1155 _CH3        10.6691     7.4696    12.4676 CH3_sp3       1 RES
    1156 _CH2         9.8318    21.9215    29.0291 CH2_sp3       1 RES
    1157 _CH2        10.1740    20.4607    28.6817 CH2_sp3       1 RES
    1158 _CH2        10.2084    19.5188    29.8996 CH2_sp3       1 RES
    1159 _CH3         9.7974    22.8634    27.8113 CH3_sp3       1 RES
    1160 _CH3        10.5506    18.0580    29.5522 CH3_sp3       1 RES
    1161 _CH2        20.1350     8.3633     5.4518 CH2_sp3       1 RES
    1162 _CH2        20.0014     9.3036     6.6640 CH2_sp3       1 RES
    1163 _CH2        19.8688    10.7918     6.2908 CH2_sp3       1 RES
    1164 _CH3        20.2675     6.8751     5.8250 CH3_sp3       1 RES
    1165 _CH3        19.7352    11.7321     7.5031 CH3_sp3       1 RES
    1166 _CH2        34.9875    10.2389    13.7945 CH2_sp3       1 RES
    1167 _CH2        36.3543    10.4671    14.4663 CH2_sp3       1 RES
    1168 _CH2        36.2848    10.5986    15.9991 CH2_sp3       1 RES
    1169 _CH3        35.0570    10.1074    12.2617 CH3_sp3       1 RES
    1170 _CH3        37.6517    10.8268    16.6708 CH3_sp3       1 RES
    1171 _CH2        22.6902    20.2911    19.9635 CH2_sp3       1 RES
    1172 _CH2        23.3993    21.4259    19.2012 CH2_sp3       1 RES
    1173 _CH2        24.5002    22.1334    20.0130 CH2_sp3       1 RES
    1174 _CH3        21.5894    19.5836    19.1516 CH3_sp3       1 RES
    1175 _CH3        25.2093    23.2681    19.2507 CH3_sp3       1 RES
    1176 _CH2        14.5266    30.1536    15.5457 CH2_sp3       1 RES
    1177 _CH2        14.1206    30.5661    16.9728 CH2_sp3       1 RES
    1178 _CH2        13.0328    31.6550    17.0245 CH2_sp3       1 RES
    1179 _CH3        15.6144    29.0647    15.4940 CH3_sp3       1 RES
    1180 _CH3        12.6267    32.0674    18.4516 CH3_sp3       1 RES
    1181 _CH2         2.9214    18.0571    20.1038 CH2_sp3       1 RES
    1182 _CH2         4.3335    18.6362    20.3093 CH2_sp3       1 RES
    1183 _CH2         4.9493    19.2512    19.0388 CH2_sp3       1 RES
    1184 _CH3         2.3057    17.4422    21.3744 CH3_sp3       1 RES
    1185 _CH3         6.3614    19.8302    19.2442 CH3_sp3       1 RES
    1186 _CH2        10.6987    18.0264    32.4864 CH2_sp3       1 RES
    1187 _CH2        11.5245    19.2121    31.9536 CH2_sp3       1 RES
    1188 _CH2        12.6082    19.7089    32.9285 CH2_sp3       1 RES
    1189 _CH3         9.6150    17.5296    31.5115 CH3_sp3       1 RES
    1190 _CH3        13.4340    20.8946    32.3957 CH3_sp3       1 RES
    1191 _CH2        16.5828    17.4352     8.3508 CH2_sp3       1 RES
    1192 _CH2        16.6999    18.0464     9.7594 CH2_sp3       1 RES
    1193 _CH2        17.0007    19.5567     9.7638 CH2_sp3       1 RES
    1194 _CH3        16.2819    15.9248     8.3464 CH3_sp3       1 RES
    1195 _CH3        17.1178    20.1680    11.1725 CH3_sp3       1 RES
    1196 _CH2        33.4534     7.0735    29.4824 CH2_sp3       1 RES
    1197 _CH2        34.7863     6.9143    28.7277 CH2_sp3       1 RES
    1198 _CH2        36.0298     7.2322    29.5787 CH2_sp3       1 RES
    1199 _CH3        32.2099     6.7555    28.6314 CH3_sp3       1 RES
    1200 _CH3        37.3628     7.0731    28.8239 CH3_sp3       1 RES
    1201 _CH2        33.0630    24.1171    13.3688 CH2_sp3       1 RES
    1202 _CH2        33.6061    24.0524    14.8084 CH2_sp3       1 RES
    1203 _CH2        34.7045    22.9933    15.0164 CH2_sp3       1 RES
    1204 _CH3        31.9646    25.1763    13.1608 CH3_sp3       1 RES
    1205 _CH3        35.2477    22.9286    16.4560 CH3_sp3       1 RES
    1206 _CH2         7.9199     6.4660    21.2226 CH2_sp3       1 RES
    1207 _CH2         7.1632     6.5628    22.5604 CH2_sp3       1 RES
    1208 _CH2         5.6631     6.8767    22.4103 CH2_sp3       1 RES
    1209 _CH3         9.4200     6.1521    21.3727 CH3_sp3       1 RES
    1210 _CH3         4.9065     6.9735    23.7481 CH3_sp3       1 RES
    1211 _CH2         9.6539    10.7002     6.2273 CH2_sp3       1 RES
    1212 _CH2        10.8963    11.5497     6.5535 CH2_sp3       1 RES
    1213 _CH2        10.6413    12.6606     7.5891 CH2_sp3       1 RES
    1214 _CH3         9.9089     9.5893     5.1917 CH3_sp3       1 RES
    1215 _CH3        11.8837    13.5100     7.9154 CH3_sp3       1 RES
    1216 _CH2        25.6231    23.8830     3.5303 CH2_sp3       1 RES
    1217 _CH2        24.1534    23.5207     3.2469 CH2_sp3       1 RES
    1218 _CH2        23.1529    24.6340     3.6091 CH2_sp3       1 RES
    1219 _CH3        26.6237    22.7697     3.1680 CH3_sp3       1 RES
    1220 _CH3        21.6832    24.2718     3.3257 CH3_sp3       1 RES
    1221 _CH2         3.6606     4.1778     8.8615 CH2_sp3       1 RES
    1222 _CH2         4.4518     4.1983    10.1826 CH2_sp3       1 RES
    1223 _CH2         4.3902     5.5441    10.9287 CH2_sp3       1 RES
    1224 _CH3         3.7221     2.8320     8.1153 CH3_sp3       1 RES
    1225 _CH3         5.1814     5.5646    12.2498 CH3_sp3       1 RES
    1226 _CH2        12.8488    19.0027    19.8840 CH2_sp3       1 RES
    1227 _CH2        13.1775    19.0066    21.3885 CH2_sp3       1 RES
    1228 _CH2        13.2848    17.6017    22.0099 CH2_sp3       1 RES
    1229 _CH3        12.7415    20.4076    19.2626 CH3_sp3       1 RES
    1230 _CH3        13.6136    17.6056    23.5144 CH3_sp3       1 RES
    1231 _CH2        25.7513     5.0375    21.4059 CH2_sp3       1 RES
    1232 _CH2        25.0257     5.0273    22.7642 CH2_sp3       1 RES
    1233 _CH2        24.3559     6.3658    23.1266 CH2_sp3       1 RES
    1234 _CH3        26.4211     3.6989    21.0435 CH3_sp3       1 RES
    1235 _CH3        23.6303     6.3556    24.4849 CH3_sp3       1 RES
    1236 _CH2        27.2100    10.8194     5.9514 CH2_sp3       1 RES
    1237 _CH2        26.8821    10.0374     7.2370 CH2_sp3       1 RES
    1238 _CH2        26.4386     8.5835     6.9898 CH2_sp3       1 RES
    1239 _CH3        27.6536    12.2733     6.1986 CH3_sp3       1 RES
    1240 _CH3        26.1107     7.8015     8.2753 CH3_sp3       1 RES
    1241 _CH2         4.8169    33.9628     5.6446 CH2_sp3       1 RES
    1242 _CH2         4.4494    35.4073     6.0320 CH2_sp3       1 RES
    1243 _CH2         5.2827    35.9748     7.1961 CH2_sp3       1 RES
    1244 _CH3         3.9837    33.3953     4.4805 CH3_sp3       1 RES
    1245 _CH3         4.9152    37.4192     7.5836 CH3_sp3       1 RES
    1246 _CH2        10.2607    28.3331    25.8747 CH2_sp3       1 RES
    1247 _CH2         9.3925    29.4799    26.4248 CH2_sp3       1 RES
    1248 _CH2         8.3078    29.0233    27.4182 CH2_sp3       1 RES
    1249 _CH3        11.3454    28.7897    24.8814 CH3_sp3       1 RES
    1250 _CH3         7.4396    30.1701    27.9683 CH3_sp3       1 RES
    1251 _CH2         4.3039    13.6330     2.7238 CH2_sp3       1 RES
    1252 _CH2         4.7494    13.7909     4.1894 CH2_sp3       1 RES
    1253 _CH2         6.2682    13.6500     4.4011 CH2_sp3       1 RES
    1254 _CH3         2.7850    13.7739     2.5121 CH3_sp3       1 RES
    1255 _CH3         6.7137    13.8078     5.8668 CH3_sp3       1 RES
    1256 _CH2        17.4275    10.9667    15.1126 CH2_sp3       1 RES
    1257 _CH2        17.1613     9.7309    15.9923 CH2_sp3       1 RES
    1258 _CH2        18.4290     8.9349    16.3542 CH2_sp3       1 RES
    1259 _CH3        16.1598    11.7627    14.7508 CH3_sp3       1 RES
    1260 _CH3        18.1628     7.6992    17.2338 CH3_sp3       1 RES
    1261 _CH2        12.3187    35.9260    20.6010 CH2_sp3       1 RES
    1262 _CH2        13.8302    36.1442    20.7993 CH2_sp3       1 RES
    1263 _CH2        14.5033    36.9354    19.6624 CH2_sp3       1 RES
    1264 _CH3        11.6455    35.1348    21.7378 CH3_sp3       1 RES
    1265 _CH3        16.0148    37.1537    19.8608 CH3_sp3       1 RES
    1266 _CH2        20.1166    20.8114    33.5439 CH2_sp3       1 RES
    1267 _CH2        20.7991    20.7064    34.9205 CH2_sp3       1 RES
    1268 _CH2        22.2674    21.1707    34.9287 CH2_sp3       1 RES
    1269 _CH3        18.6483    20.3471    33.5357 CH3_sp3       1 RES
    1270 _CH3        22.9499    21.0657    36.3052 CH3_sp3       1 RES
    1271 _CH2        31.1805    22.7334    25.5918 CH2_sp3       1 RES
    1272 _CH2        29.9904    21.7625    25.7046 CH2_sp3       1 RES
    1273 _CH2        28.9264    22.1925    26.7315 CH2_sp3       1 RES
    1274 _CH3        32.2445    22.3035    24.5649 CH3_sp3       1 RES
    1275 _CH3        27.7363    21.2216    26.8443 CH3_sp3       1 RES
    1276 _CH2        11.6634    35.6347    26.0396 CH2_sp3       1 RES
    1277 _CH2        11.0212    35.4216    24.6563 CH2_sp3       1 RES
    1278 _CH2         9.5916    34.8516    24.7105 CH2_sp3       1 RES
    1279 _CH3        13.0930    36.2047    25.9854 CH3_sp3       1 RES
    1280 _CH3         8.9493    34.6385    23.3271 CH3_sp3       1 RES
    1281 _CH2        36.9601    30.2473    11.3472 CH2_sp3       1 RES
    1282 _CH2        36.6273    30.9819    12.6591 CH2_sp3       1 RES
    1283 _CH2        35.9725    32.3609    12.4562 CH2_sp3       1 RES
    1284 _CH3        37.6149    28.8683    11.5501 CH3_sp3       1 RES
    1285 _CH3        35.6397    33.0954    13.7682 CH3_sp3       1 RES
    1286 _CH2        19.3594    14.9345    13.1556 CH2_sp3       1 RES
    1287 _CH2        18.9651    16.4145    12.9951 CH2_sp3       1 RES
    1288 _CH2        18.6806    16.8327    11.5406 CH2_sp3       1 RES
    1289 _CH3        19.6439    14.5163    14.6102 CH3_sp3       1 RES
    1290 _CH3        18.2864    18.3127    11.3800 CH3_sp3       1 RES
    1291 _CH2        19.4245    28.2133    21.3602 CH2_sp3       1 RES
    1292 _CH2        18.2198    27.4589    20.7675 CH2_sp3       1 RES
    1293 _CH2        16.9785    27.4465    21.6789 CH2_sp3       1 RES
    1294 _CH3        20.6658    28.2257    20.4488 CH3_sp3       1 RES
    1295 _CH3        15.7738    26.6921    21.0862 CH3_sp3       1 RES
    1296 _CH2        37.4035    32.4007    29.4282 CH2_sp3       1 RES
    1297 _CH2        37.3134    33.9331    29.3049 CH2_sp3       1 RES
    1298 _CH2        36.5080    34.4171    28.0848 CH2_sp3       1 RES
    1299 _CH3        38.2089    31.9168    30.6483 CH3_sp3       1 RES
    1300 _CH3        36.4179    35.9495    27.9616 CH3_sp3       1 RES
    1301 _CH2        23.0093    28.8841    22.7305 CH2_sp3       1 RES
    1302 _CH2        22.4481    29.3534    21.3754 CH2_sp3       1 RES
    1303 _CH2        21.3291    30.4051    21.4912 CH2_sp3       1 RES
    1304 _CH3        24.1282    27.8324    22.6147 CH3_sp3       1 RES
    1305 _CH3        20.7679    30.8745    20.1360 CH3_sp3       1 RES
    1306 _CH2        32.0008    25.3426    15.6286 CH2_sp3       1 RES
    1307 _CH2        32.9651    26.5264    15.8297 CH2_sp3       1 RES
    1308 _CH2        34.0985    26.5946    14.7893 CH2_sp3       1 RES
    1309 _CH3        30.8674    25.2744    16.6689 CH3_sp3       1 RES
    1310 _CH3        35.0629    27.7784    14.9904 CH3_sp3       1 RES
    1311 _CH2        14.7572    25.6484    26.1753 CH2_sp3       1 RES
    1312 _CH2        15.1304    25.3178    27.6323 CH2_sp3       1 RES
    1313 _CH2        16.4156    24.4814    27.7754 CH2_sp3       1 RES
    1314 _CH3        13.4721    26.4848    26.0322 CH3_sp3       1 RES
    1315 _CH3        16.7888    24.1507    29.2324 CH3_sp3       1 RES
    1316 _CH2        22.8370    10.5836    30.5871 CH2_sp3       1 RES
    1317 _CH2        22.5692    10.4213    29.0793 CH2_sp3       1 RES
    1318 _CH2        23.0484     9.0776    28.4991 CH2_sp3       1 RES
    1319 _CH3        22.3578    11.9273    31.1673 CH3_sp3       1 RES
    1320 _CH3        22.7807     8.9153    26.9913 CH3_sp3       1 RES
    1321 _CH2        14.9925    19.8084    29.5637 CH2_sp3       1 RES
    1322 _CH2        15.6416    21.1422    29.9775 CH2_sp3       1 RES
    1323 _CH2        14.8347    21.9336    31.0235 CH2_sp3       1 RES
    1324 _CH3        15.7995    19.0170    28.5177 CH3_sp3       1 RES
    1325 _CH3        15.4838    23.2673    31.4374 CH3_sp3       1 RES
    1326 _CH2        12.4186    10.1587    21.3324 CH2_sp3       1 RES
    1327 _CH2        11.4404    10.0642    22.5181 CH2_sp3       1 RES
    1328 _CH2         9.9606     9.9656    22.1030 CH2_sp3       1 RES
    1329 _CH3        13.8983    10.2573    21.7475 CH3_sp3       1 RES
    1330 _CH3         8.9824     9.8711    23.2887 CH3_sp3       1 RES
    1331 _CH2        21.7427    13.3061    14.3539 CH2_sp3       1 RES
    1332 _CH2        20.9746    12.1539    13.6801 CH2_sp3       1 RES
    1333 _CH2        19.4580    12.1714    13.9475 CH2_sp3       1 RES
    1334 _CH3        23.2592    13.2886    14.0866 CH3_sp3       1 RES
    1335 _CH3        18.6899    11.0192    13.2737 CH3_sp3       1 RES
    1336 _CH2        32.3014    10.1836    24.7395 CH2_sp3       1 RES
    1337 _CH2        31.4147     9.0242    25.2307 CH2_sp3       1 RES
    1338 _CH2        30.9760     9.1508    26.7015 CH2_sp3       1 RES
    1339 _CH3        32.7400    10.0570    23.2687 CH3_sp3       1 RES
    1340 _CH3        30.0893     7.9915    27.1927 CH3_sp3       1 RES
    1341 _CH2        25.9782    30.7481    17.8928 CH2_sp3       1 RES
    1342 _CH2        26.9459    31.7973    18.4711 CH2_sp3       1 RES
    1343 _CH2        26.5773    33.2506    18.1191 CH2_sp3       1 RES
    1344 _CH3        26.3468    29.2949    18.2448 CH3_sp3       1 RES
    1345 _CH3        27.5449    34.2998    18.6974 CH3_sp3       1 RES
    1346 _CH2        28.5573    33.5592    32.8934 CH2_sp3       1 RES
    1347 _CH2        28.4070    34.1938    31.4983 CH2_sp3       1 RES
    1348 _CH2        27.8658    35.6353    31.5208 CH2_sp3       1 RES
    1349 _CH3        29.0985    32.1177    32.8709 CH3_sp3       1 RES
    1350 _CH3        27.7155    36.2699    30.1257 CH3_sp3       1 RES
    1351 _CH2        33.0110    32.2315    37.0460 CH2_sp3       1 RES
    1352 _CH2        32.0249    32.9885    37.9549 CH2_sp3       1 RES
    1353 _CH2        30.5433    32.7050    37.6448 CH2_sp3       1 RES
    1354 _CH3        34.4926    32.5150    37.3560 CH3_sp3       1 RES
    1355 _CH3        29.5572    33.4620    38.5537 CH3_sp3       1 RES
    1356 _CH2        25.5499    31.9748    38.3533 CH2_sp3       1 RES
    1357 _CH2        26.1000    31.3871    37.0405 CH2_sp3       1 RES
    1358 _CH2        27.5798    31.7215    36.7760 CH2_sp3       1 RES
    1359 _CH3        24.0701    31.6403    38.6177 CH3_sp3       1 RES
    1360 _CH3        28.1299    31.1338    35.4632 CH3_sp3       1 RES
    1361 _CH2        36.2587    19.0785    32.7229 CH2_sp3       1 RES
    1362 _CH2        35.8055    20.0028    31.5775 CH2_sp3       1 RES
    1363 _CH2        34.3111    20.3719    31.6245 CH2_sp3       1 RES
    1364 _CH3        37.7530    18.7093    32.6759 CH3_sp3       1 RES
    1365 _CH3        33.8579    21.2962    30.4791 CH3_sp3       1 RES
    1366 _CH2         3.9950     8.8689    21.8231 CH2_sp3       1 RES
    1367 _CH2         5.2048     8.9209    20.8716 CH2_sp3       1 RES
    1368 _CH2         6.5406     9.2289    21.5733 CH2_sp3       1 RES
    1369 _CH3         2.6591     8.5609    21.1214 CH3_sp3       1 RES
    1370 _CH3         7.7505     9.2809    20.6218 CH3_sp3       1 RES
    1371 _CH2         9.1683    15.7796    37.0436 CH2_sp3       1 RES
    1372 _CH2         9.5864    15.9494    35.5712 CH2_sp3       1 RES
    1373 _CH2         8.4121    15.8953    34.5764 CH2_sp3       1 RES
    1374 _CH3        10.3426    15.8337    38.0385 CH3_sp3       1 RES
    1375 _CH3         8.8302    16.0651    33.1040 CH3_sp3       1 RES
    1376 _CH2         4.2603    12.4534    16.4676 CH2_sp3       1 RES
    1377 _CH2         5.6979    13.0051    16.4444 CH2_sp3       1 RES
    1378 _CH2         6.4980    12.6158    15.1875 CH2_sp3       1 RES
    1379 _CH3         3.4602    12.8426    17.7245 CH3_sp3       1 RES
    1380 _CH3         7.9356    13.1675    15.1643 CH3_sp3       1 RES
    1381 _CH2        21.6745     3.2160    30.1886 CH2_sp3       1 RES
    1382 _CH2        21.1782     4.3055    29.2200 CH2_sp3       1 RES
    1383 _CH2        20.6257     5.5613    29.9197 CH2_sp3       1 RES
    1384 _CH3        22.2269     1.9603    29.4890 CH3_sp3       1 RES
    1385 _CH3        20.1294     6.6508    28.9511 CH3_sp3       1 RES
    1386 _CH2        14.1667    16.5654    36.3193 CH2_sp3       1 RES
    1387 _CH2        13.6841    17.7735    35.4951 CH2_sp3       1 RES
    1388 _CH2        12.5592    18.5818    36.1681 CH2_sp3       1 RES
    1389 _CH3        15.2916    15.7572    35.6463 CH3_sp3       1 RES
    1390 _CH3        12.0766    19.7899    35.3440 CH3_sp3       1 RES
    1391 _CH2        35.3112     7.9673     5.4926 CH2_sp3       1 RES
    1392 _CH2        35.2707     7.0087     6.6972 CH2_sp3       1 RES
    1393 _CH2        35.9468     7.5655     7.9639 CH2_sp3       1 RES
    1394 _CH3        34.6351     7.4104     4.2260 CH3_sp3       1 RES
    1395 _CH3        35.9064     6.6069     9.1685 CH3_sp3       1 RES
    1396 _CH2        36.2358    17.4996    21.7432 CH2_sp3       1 RES
    1397 _CH2        35.9366    17.0755    23.1930 CH2_sp3       1 RES
    1398 _CH2        34.9803    15.8739    23.3095 CH2_sp3       1 RES
    1399 _CH3        37.1920    18.7012    21.6267 CH3_sp3       1 RES
    1400 _CH3        34.6811    15.4498    24.7594 CH3_sp3       1 RES
    1401 _CH2        21.0173    20.8294     3.7358 CH2_sp3       1 RES
    1402 _CH2        19.8451    19.9543     3.2544 CH2_sp3       1 RES
    1403 _CH2        18.6211    19.9776     4.1887 CH2_sp3       1 RES
    1404 _CH3        22.2413    20.8061     2.8015 CH3_sp3       1 RES
    1405 _CH3        17.4489    19.1025     3.7072 CH3_sp3       1 RES
    1406 _CH2        27.0386     4.7007     5.4251 CH2_sp3       1 RES
    1407 _CH2        27.2253     5.9364     4.5253 CH2_sp3       1 RES
    1408 _CH2        25.9047     6.5800     4.0631 CH2_sp3       1 RES
    1409 _CH3        28.3591     4.0572     5.8873 CH3_sp3       1 RES
    1410 _CH3        26.0914     7.8157     3.1632 CH3_sp3       1 RES
    1411 _CH2        18.4388    28.5427    10.6779 CH2_sp3       1 RES
    1412 _CH2        19.1416    27.5993    11.6717 CH2_sp3       1 RES
    1413 _CH2        19.1380    26.1207    11.2414 CH2_sp3       1 RES
    1414 _CH3        18.4424    30.0213    11.1082 CH3_sp3       1 RES
    1415 _CH3        19.8408    25.1774    12.2352 CH3_sp3       1 RES
    1416 _CH2         7.5006    17.7914    23.2386 CH2_sp3       1 RES
    1417 _CH2         6.0119    17.3983    23.2078 CH2_sp3       1 RES
    1418 _CH2         5.0786    18.4268    23.8732 CH2_sp3       1 RES
    1419 _CH3         8.4339    16.7630    22.5733 CH3_sp3       1 RES
    1420 _CH3         3.5899    18.0336    23.8424 CH3_sp3       1 RES
    1421 _CH2        17.1475    18.6509    38.5028 CH2_sp3       1 RES
    1422 _CH2        15.9318    18.9950    37.6223 CH2_sp3       1 RES
    1423 _CH2        14.9399    19.9732    38.2787 CH2_sp3       1 RES
    1424 _CH3        18.1395    17.6727    37.8464 CH3_sp3       1 RES
    1425 _CH3        13.7241    20.3173    37.3982 CH3_sp3       1 RES
    1426 _CH2        23.4356    25.9783    13.2560 CH2_sp3       1 RES
    1427 _CH2        23.0328    25.1516    14.4912 CH2_sp3       1 RES
    1428 _CH2        21.6510    25.5158    15.0653 CH2_sp3       1 RES
    1429 _CH3        24.8174    25.6141    12.6819 CH3_sp3       1 RES
    1430 _CH3        21.2482    24.6891    16.3006 CH3_sp3       1 RES
    1431 _CH2        16.3832    24.8132    24.1591 CH2_sp3       1 RES
    1432 _CH2        15.4356    24.9427    22.9521 CH2_sp3       1 RES
    1433 _CH2        14.0079    25.3867    23.3214 CH2_sp3       1 RES
    1434 _CH3        17.8108    24.3692    23.7898 CH3_sp3       1 RES
    1435 _CH3        13.0603    25.5162    22.1143 CH3_sp3       1 RES
    1436 _CH2        34.3574    29.3630    20.9542 CH2_sp3       1 RES
    1437 _CH2        33.9459    29.5978    19.4888 CH2_sp3       1 RES
    1438 _CH2        32.4667    29.9863    19.3082 CH2_sp3       1 RES
    1439 _CH3        35.8366    28.9746    21.1348 CH3_sp3       1 RES
    1440 _CH3        32.0553    30.2211    17.8428 CH3_sp3       1 RES
    1441 _CH2        21.7452    10.6208    22.2299 CH2_sp3       1 RES
    1442 _CH2        22.5363     9.3007    22.2871 CH2_sp3       1 RES
    1443 _CH2        22.9432     8.7540    20.9062 CH2_sp3       1 RES
    1444 _CH3        21.3382    11.1674    23.6109 CH3_sp3       1 RES
    1445 _CH3        23.7343     7.4340    20.9634 CH3_sp3       1 RES
    1446 _CH2        29.1524    10.2729     8.0822 CH2_sp3       1 RES
    1447 _CH2        30.2996     9.7769     7.1825 CH2_sp3       1 RES
    1448 _CH2        29.8391     8.8833     6.0158 CH2_sp3       1 RES
    1449 _CH3        29.6128    11.1665     9.2489 CH3_sp3       1 RES
    1450 _CH3        30.9863     8.3874     5.1161 CH3_sp3       1 RES
    1451 _CH2        32.2942    14.5300    22.1031 CH2_sp3       1 RES
    1452 _CH2        31.9000    14.8225    20.6434 CH2_sp3       1 RES
    1453 _CH2        30.9764    16.0435    20.4766 CH2_sp3       1 RES
    1454 _CH3        33.2178    13.3090    22.2699 CH3_sp3       1 RES
    1455 _CH3        30.5822    16.3359    19.0169 CH3_sp3       1 RES
    1456 _CH2        12.5667     5.9400    26.0720 CH2_sp3       1 RES
    1457 _CH2        12.7228     5.2783    24.6902 CH2_sp3       1 RES
    1458 _CH2        13.7462     4.1280    24.6586 CH2_sp3       1 RES
    1459 _CH3        11.5433     7.0904    26.1036 CH3_sp3       1 RES
    1460 _CH3        13.9023     3.4663    23.2768 CH3_sp3       1 RES
    1461 _CH2        10.5929    25.1622    35.8476 CH2_sp3       1 RES
    1462 _CH2        11.5833    24.1623    35.2222 CH2_sp3       1 RES
    1463 _CH2        11.2731    23.8073    33.7562 CH2_sp3       1 RES
    1464 _CH3        10.9031    25.5172    37.3137 CH3_sp3       1 RES
    1465 _CH3        12.2635    22.8074    33.1308 CH3_sp3       1 RES
    1466 _CH2        12.5468    35.0468    29.0923 CH2_sp3       1 RES
    1467 _CH2        13.6014    35.5746    28.1019 CH2_sp3       1 RES
    1468 _CH2        15.0460    35.5094    28.6315 CH2_sp3       1 RES
    1469 _CH3        11.1021    35.1120    28.5628 CH3_sp3       1 RES
    1470 _CH3        16.1006    36.0371    27.6411 CH3_sp3       1 RES
    1471 _CH2        32.4037    28.3443    37.1618 CH2_sp3       1 RES
    1472 _CH2        33.9012    28.6351    37.3722 CH2_sp3       1 RES
    1473 _CH2        34.3464    30.0217    36.8713 CH2_sp3       1 RES
    1474 _CH3        31.9585    26.9577    37.6627 CH3_sp3       1 RES
    1475 _CH3        35.8440    30.3126    37.0816 CH3_sp3       1 RES
    1476 _CH2         6.2795    34.7979    24.7239 CH2_sp3       1 RES
    1477 _CH2         5.9502    35.4035    23.3468 CH2_sp3       1 RES
    1478 _CH2         5.6677    36.9170    23.3796 CH2_sp3       1 RES
    1479 _CH3         6.5620    33.2844    24.6912 CH3_sp3       1 RES
    1480 _CH3         5.3384    37.5227    22.0025 CH3_sp3       1 RES
    1481 _CH2        19.1388    11.4212    21.9804 CH2_sp3       1 RES
    1482 _CH2        17.7036    10.9678    21.6547 CH2_sp3       1 RES
    1483 _CH2        17.5897     9.4832    21.2613 CH2_sp3       1 RES
    1484 _CH3        19.2527    12.9057    22.3737 CH3_sp3       1 RES
    1485 _CH3        16.1545     9.0298    20.9356 CH3_sp3       1 RES
    1486 _CH2        16.0276     6.4008    19.7537 CH2_sp3       1 RES
    1487 _CH2        17.0594     6.2856    20.8911 CH2_sp3       1 RES
    1488 _CH2        18.2177     5.3163    20.5902 CH2_sp3       1 RES
    1489 _CH3        14.8693     7.3701    20.0546 CH3_sp3       1 RES
    1490 _CH3        19.2495     5.2010    21.7275 CH3_sp3       1 RES
    1491 _CH2        25.4603     6.2929    15.0098 CH2_sp3       1 RES
    1492 _CH2        25.1272     6.3161    16.5132 CH2_sp3       1 RES
    1493 _CH2        24.9389     7.7310    17.0912 CH2_sp3       1 RES
    1494 _CH3        25.6486     4.8780    14.4317 CH3_sp3       1 RES
    1495 _CH3        24.6058     7.7542    18.5946 CH3_sp3       1 RES
    1496 _CH2        14.7451    12.7439    12.6617 CH2_sp3       1 RES
    1497 _CH2        15.5391    11.6299    11.9546 CH2_sp3       1 RES
    1498 _CH2        14.7139    10.3638    11.6584 CH2_sp3       1 RES
    1499 _CH3        15.5703    14.0100    12.9578 CH3_sp3       1 RES
    1500 _CH3        15.5080     9.2497    10.9513 CH3_sp3       1 RES
@<TRIPOS>BOND
       1        2        1 1
       2        3        2 1
       3        4        1 1
       4        5        3 1
       5        7        6 1
       6        8        7 1
       7        9        6 1
       8       10        8 1
       9       12       11 1
      10       13       12 1
      11       14       11 1
      12       15       13 1
      13       17       16 1
      14       18       17 1
      15       19       16 1
      16       20       18 1
      17       22       21 1
      18       23       22 1
      19       24       21 1
      20       25       23 1
      21       27       26 1
      22       28       27 1
      23       29       26 1
      24       30       28 1
      25       32       31 1
      26       33       32 1
      27       34       31 1
      28       35       33 1
      29       37       36 1
      30       38       37 1
      31       39       36 1
      32       40       38 1
      33       42       41 1
      34       43       42 1
      35       44       41 1
      36       45       43 1
      37       47       46 1
      38       48       47 1
      39       49       46 1
      40       50       48 1
      41       52       51 1
      42       53       52 1
      43       54       51 1
      44       55       53 1
      45       57       56 1
      46       58       57 1
      47       59       56 1
      48       60       58 1
      49       62       61 1
      50       63       62 1
      51       64       61 1
      52       65       63 1
      53       67       66 1
      54       68       67 1
      55       69       66 1
      56       70       68 1
      57       72       71 1
      58       73       72 1
      59       74       71 1
      60       75       73 1
      61       77       76 1
      62       78       77 1
      63       79       76 1
      64       80       78 1
      65       82       81 1
      66       83       82 1
      67       84       81 1
      68       85       83 1
      69       87       86 1
      70       88       87 1
      71       89       86 1
      72       90       88 1
      73       92       91 1
      74       93       92 1
      75       94       91 1
      76       95       93 1
      77       97       96 1
      78       98       97 1
      79       99       96 1
      80      100       98 1
      81      102      101 1
      82      103      102 1
      83      104      101 1
      84      105      103 1
      85      107      106 1
      86      108      107 1
      87      109      106 1
      88      110      108 1
      89      112      111 1
      90      113      112 1
      91      114      111 1
      92      115      113 1
      93      117      116 1
      94      118      117 1
      95      119      116 1
      96      120      118 1
      97      122      121 1
      98      123      122 1
      99      124      121 1
     100      125      123 1
     101      127      126 1
     102      128      127 1
     103      129      126 1
     104      130      128 1
     105      132      131 1
     106      133      132 1
     107      134      131 1
     108      135      133 1
     109      137      136 1
     110      138      137 1
     111      139      136 1
     112      140      138 1
     113      142      141 1
     114      143      142 1
     115      144      141 1
     116      145      143 1
     117      147      146 1
     118      148      147 1
     119      149      146 1
     120      150      148 1
     121      152      151 1
     122      153      152 1
     123      154      151 1
     124      155      153 1
     125      157      156 1
     126      158      157 1
     127      159      156 1
     128      160      158 1
     129      162      161 1
     130      163      162 1
     131      164      161 1
     132      165      163 1
     133      167      166 1
     134      168      167 1
     135      169      166 1
     136      170      168 1
     137      172      171 1
     138      173      172 1
     139      174      171 1
     140      175      173 1
     141      177      176 1
     142      178      177 1
     143      179      176 1
     144      180      178 1
     145      182      181 1
     146      183      182 1
     147      184      181 1
     148      185      183 1
     149      187      186 1
     150      188      187 1
     151      189      186 1
     152      190      188 1
     153      192      191 1
     154      193      192 1
     155      194      191 1
     156      195      193 1
     157      197      196 1
     158      198      197 1
     159      199      196 1
     160      200      198 1
     161      202      201 1
     162      203      202 1
     163      204      201 1
     164      205      203 1
     165      207      206 1
     166      208      207 1
     167      209      206 1
     168      210      208 1
     169      212      211 1
     170      213      212 1
     171      214      211 1
     172      215      213 1
     173      217      216 1
     174      218      217 1
     175      219      216 1
     176      220      218 1
     177      222      221 1
     178      223      222 1
     179      224      221 1
     180      225      223 1
     181      227      226 1
     182      228      227 1
     183      229      226 1
     184      230      228 1
     185      232      231 1
     186      233      232 1
     187      234      231 1
     188      235      233 1
     189      237      236 1
     190      238      237 1
     191      239      236 1
     192      240      238 1
     193      242      241 1
     194      243      242 1
     195      244      241 1
     196      245      243 1
     197      247      246 1
     198      248      247 1
     199      249      246 1
     200      250      248 1
     201      252      251 1
     202      253      252 1
     203      254      251 1
     204      255      253 1
     205      257      256 1
     206      258      257 1
     207      259      256 1
     208      260      258 1
     209      262      261 1
     210      263      262 1
     211      264      261 1
     212      265      263 1
     213      267      266 1
     214      268      267 1
     215      269      266 1
     216      270      268 1
     217      272      271 1
     218      273      272 1
     219      274      271 1
     220      275      273 1
     221      277      276 1
     222      278      277 1
     223      279      276 1
     224      280      278 1
     225      282      281 1
     226      283      282 1
     227      284      281 1
     228      285      283 1
     229      287      286 1
     230      288      287 1
     231      289      286 1
     232      290      288 1
     233      292      291 1
     234      293      292 1
     235      294      291 1
     236      295      293 1
     237      297      296 1
     238      298      297 1
     239      299      296 1
     240      300      298 1
     241      302      301 1
     242      303      302 1
     243      304      301 1
     244      305      303 1
     245      307      306 1
     246      308      307 1
     247      309      306 1
     248      310      308 1
     249      312      311 1
     250      313      312 1
     251      314      311 1
     252      315      313 1
     253      317      316 1
     254      318      317 1
     255      319      316 1
     256      320      318 1
     257      322      321 1
     258      323      322 1
     259      324      321 1
     260      325      323 1
     261      327      326 1
     262      328      327 1
     263      329      326 1
     264      330      328 1
     265      332      331 1
     266      333      332 1
     267      334      331 1
     268      335      333 1
     269      337      336 1
     270      338      337 1
     271      339      336 1
     272      340      338 1
     273      342      341 1
     274      343      342 1
     275      344      341 1
     276      345      343 1
     277      347      346 1
     278      348      347 1
     279      349      346 1
     280      350      348 1
     281      352      351 1
     282      353      352 1
     283      354      351 1
     284      355      353 1
     285      357      356 1
     286      358      357 1
     287      359      356 1
     288      360      358 1
     289      362      361 1
     290      363      362 1
     291      364      361 1
     292      365      363 1
     293      367      366 1
     294      368      367 1
     295      369      366 1
     296      370      368 1
     297      372      371 1
     298      373      372 1
     299      374      371 1
     300      375      373 1
     301      377      376 1
     302      378      377 1
     303      379      376 1
     304      380      378 1
     305      382      381 1
     306      383      382 1
     307      384      381 1
     308      385      383 1
     309      387      386 1
     310      388      387 1
     311      389      386 1
     312      390      388 1
     313      392      391 1
     314      393      392 1
     315      394      391 1
     316      395      393 1
     317      397      396 1
     318      398      397 1
     319      399      396 1
     320      400      398 1
     321      402      401 1
     322      403      402 1
     323      404      401 1
     324      405      403 1
     325      407      406 1
     326      408      407 1
     327      409      406 1
     328      410      408 1
     329      412      411 1
     330      413      412 1
     331      414      411 1
     332      415      413 1
     333      417      416 1
     334      418      417 1
     335      419      416 1
     336      420      418 1
     337      422      421 1
     338      423      422 1
     339      424      421 1
     340      425      423 1
     341      427      426 1
     342      428      427 1
     343      429      426 1
     344      430      428 1
     345      432      431 1
     346      433      432 1
     347      434      431 1
     348      435      433 1
     349      437      436 1
     350      438      437 1
     351      439      436 1
     352      440      438 1
     353      442      441 1
     354      443      442 1
     355      444      441 1
     356      445      443 1
     357      447      446 1
     358      448      447 1
     359      449      446 1
     360      450      448 1
     361      452      451 1
     362      453      452 1
     363      454      451 1
     364      455      453 1
     365      457      456 1
     366      458      457 1
     367      459      456 1
     368      460      458 1
     369      462      461 1
     370      463      462 1
     371      464      461 1
     372      465      463 1
     373      467      466 1
     374      468      467 1
     375      469      466 1
     376      470      468 1
     377      472      471 1
     378      473      472 1
     379      474      471 1
     380      475      473 1
     381      477      476 1
     382      478      477 1
     383      479      476 1
     384      480      478 1
     385      482      481 1
     386      483      482 1
     387      484      481 1
     388      485      483 1
     389      487      486 1
     390      488      487 1
     391      489      486 1
     392      490      488 1
     393      492      491 1
     394      493      492 1
     395      494      491 1
     396      495      493 1
     397      497      496 1
     398      498      497 1
     399      499      496 1
     400      500      498 1
     401      502      501 1
     402      503      502 1
     403      504      501 1
     404      505      503 1
     405      507      506 1
     406      508      507 1
     407      509      506 1
     408      510      508 1
     409      512      511 1
     410      513      512 1
     411      514      511 1
     412      515      513 1
     413      517      516 1
     414      518      517 1
     415      519      516 1
     416      520      518 1
     417      522      521 1
     418      523      522 1
     419      524      521 1
     420      525      523 1
     421      527      526 1
     422      528      527 1
     423      529      526 1
     424      530      528 1
     425      532      531 1
     426      533      532 1
     427      534      531 1
     428      535      533 1
     429      537      536 1
     430      538      537 1
     431      539      536 1
     432      540      538 1
     433      542      541 1
     434      543      542 1
     435      544      541 1
     436      545      543 1
     437      547      546 1
     438      548      547 1
     439      549      546 1
     440      550      548 1
     441      552      551 1
     442      553      552 1
     443      554      551 1
     444      555      553 1
     445      557      556 1
     446      558      557 1
     447      559      556 1
     448      560      558 1
     449      562      561 1
     450      563      562 1
     451      564      561 1
     452      565      563 1
     453      567      566 1
     454      568      567 1
     455      569      566 1
     456      570      568 1
     457      572      571 1
     458      573      572 1
     459      574      571 1
     460      575      573 1
     461      577      576 1
     462      578      577 1
     463      579      576 1
     464      580      578 1
     465      582      581 1
     466      583      582 1
     467      584      581 1
     468      585      583 1
     469      587      586 1
     470      588      587 1
     471      589      586 1
     472      590      588 1
     473      592      591 1
     474      593      592 1
     475      594      591 1
     476      595      593 1
     477      597      596 1
     478      598      597 1
     479      599      596 1
     480      600      598 1
     481      602      601 1
     482      603      602 1
     483      604      601 1
     484      605      603 1
     485      607      606 1
     486      608      607 1
     487      609      606 1
     488      610      608 1
     489      612      611 1
     490      613      612 1
     491      614      611 1
     492      615      613 1
     493      617      616 1
     494      618      617 1
     495      619      616 1
     496      620      618 1
     497      622      621 1
     498      623      622 1
     499      624      621 1
     500      625      623 1
     501      627      626 1
     502      628      627 1
     503      629      626 1
     504      630      628 1
     505      632      631 1
     506      633      632 1
     507      634      631 1
     508      635      633 1
     509      637      636 1
     510      638      637 1
     511      639      636 1
     512      640      638 1
     513      642      641 1
     514      643      642 1
     515      644      641 1
     516      645      643 1
     517      647      646 1
     518      648      647 1
     519      649      646 1
     520      650      648 1
     521      652      651 1
     522      653      652 1
     523      654      651 1
     524      655      653 1
     525      657      656 1
     526      658      657 1
     527      659      656 1
     528      660      658 1
     529      662      661 1
     530      663      662 1
     531      664      661 1
     532      665      663 1
     533      667      666 1
     534      668      667 1
     535      669      666 1
     536      670      668 1
     537      672      671 1
     538      673      672 1
     539      674      671 1
     540      675      673 1
     541      677      676 1
     542      678      677 1
     543      679      676 1
     544      680      678 1
     545      682      681 1
     546      683      682 1
     547      684      681 1
     548      685      683 1
     549      687      686 1
     550      688      687 1
     551      689      686 1
     552      690      688 1
     553      692      691 1
     554      693      692 1
     555      694      691 1
     556      695      693 1
     557      697      696 1
     558      698      697 1
     559      699      696 1
     560      700      698 1
     561      702      701 1
     562      703      702 1
     563      704      701 1
     564      705      703 1
     565      707      706 1
     566      708      707 1
     567      709      706 1
     568      710      708 1
     569      712      711 1
     570      713      712 1
     571      714      711 1
     572      715      713 1
     573      717      716 1
     574      718      717 1
     575      719      716 1
     576      720      718 1
     577      722      721 1
     578      723      722 1
     579      724      721 1
     580      725      723 1
     581      727      726 1
     582      728      727 1
     583      729      726 1
     584      730      728 1
     585      732      731 1
     586      733      732 1
     587      734      731 1
     588      735      733 1
     589      737      736 1
     590      738      737 1
     591      739      736 1
     592      740      738 1
     593      742      741 1
     594      743      742 1
     595      744      741 1
     596      745      743 1
     597      747      746 1
     598      748      747 1
     599      749      746 1
     600      750      748 1
     601      752      751 1
     602      753      752 1
     603      754      751 1
     604      755      753 1
     605      757      756 1
     606      758      757 1
     607      759      756 1
     608      760      758 1
     609      762      761 1
     610      763      762 1
     611      764      761 1
     612      765      763 1
     613      767      766 1
     614      768      767 1
     615      769      766 1
     616      770      768 1
     617      772      771 1
     618      773      772 1
     619      774      771 1
     620      775      773 1
     621      777      776 1
     622      778      777 1
     623      779      776 1
     624      780      778 1
     625      782      781 1
     626      783      782 1
     627      784      781 1
     628      785      783 1
     629      787      786 1
     630      788      787 1
     631      789      786 1
     632      790      788 1
     633      792      791 1
     634      793      792 1
     635      794      791 1
     636      795      793 1
     637      797      796 1
     638      798      797 1
     639      799      796 1
     640      800      798 1
     641      802      801 1
     642      803      802 1
     643      804      801 1
     644      805      803 1
     645      807      806 1
     646      808      807 1
     647      809      806 1
     648      810      808 1
     649      812      811 1
     650      813      812 1
     651      814      811 1
     652      815      813 1
     653      817      816 1
     654      818      817 1
     655      819      816 1
     656      820      818 1
     657      822      821 1
     658      823      822 1
     659      824      821 1
     660      825      823 1
     661      827      826 1
     662      828      827 1
     663      829      826 1
     664      830      828 1
     665      832      831 1
     666      833      832 1
     667      834      831 1
     668      835      833 1
     669      837      836 1
     670      838      837 1
     671      839      836 1
     672      840      838 1
     673      842      841 1
     674      843      842 1
     675      844      841 1
     676      845      843 1
     677      847      846 1
     678      848      847 1
     679      849      846 1
     680      850      848 1
     681      852      851 1
     682      853      852 1
     683      854      851 1
     684      855      853 1
     685      857      856 1
     686      858      857 1
     687      859      856 1
     688      860      858 1
     689      862      861 1
     690      863      862 1
     691      864      861 1
     692      865      863 1
     693      867      866 1
     694      868      867 1
     695      869      866 1
     696      870      868 1
     697      872      871 1
     698      873      872 1
     699      874      871 1
     700      875      873 1
     701      877      876 1
     702      878      877 1
     703      879      876 1
     704      880      878 1
     705      882      881 1
     706      883      882 1
     707      884      881 1
     708      885      883 1
     709      887      886 1
     710      888      887 1
     711      889      886 1
     712      890      888 1
     713      892      891 1
     714      893      892 1
     715      894      891 1
     716      895      893 1
     717      897      896 1
     718      898      897 1
     719      899      896 1
     720      900      898 1
     721      902      901 1
     722      903      902 1
     723      904      901 1
     724      905      903 1
     725      907      906 1
     726      908      907 1
     727      909      906 1
     728      910      908 1
     729      912      911 1
     730      913      912 1
     731      914      911 1
     732      915      913 1
     733      917      916 1
     734      918      917 1
     735      919      916 1
     736      920      918 1
     737      922      921 1
     738      923      922 1
     739      924      921 1
     740      925      923 1
     741      927      926 1
     742      928      927 1
     743      929      926 1
     744      930      928 1
     745      932      931 1
     746      933      932 1
     747      934      931 1
     748      935      933 1
     749      937      936 1
     750      938      937 1
     751      939      936 1
     752      940      938 1
     753      942      941 1
     754      943      942 1
     755      944      941 1
     756      945      943 1
     757      947      946 1
     758      948      947 1
     759      949      946 1
     760      950      948 1
     761      952      951 1
     762      953      952 1
     763      954      951 1
     764      955      953 1
     765      957      956 1
     766      958      957 1
     767      959      956 1
     768      960      958 1
     769      962      961 1
     770      963      962 1
     771      964      961 1
     772      965      963 1
     773      967      966 1
     774      968      967 1
     775      969      966 1
     776      970      968 1
     777      972      971 1
     778      973      972 1
     779      974      971 1
     780      975      973 1
     781      977      976 1
     782      978      977 1
     783      979      976 1
     784      980      978 1
     785      982      981 1
     786      983      982 1
     787      984      981 1
     788      985      983 1
     789      987      986 1
     790      988      987 1
     791      989      986 1
     792      990      988 1
     793      992      991 1
     794      993      992 1
     795      994      991 1
     796      995      993 1
     797      997      996 1
     798      998      997 1
     799      999      996 1
     800     1000      998 1
     801     1002     1001 1
     802     1003     1002 1
     803     1004     1001 1
     804     1005     1003 1
     805     1007     1006 1
     806     1008     1007 1
     807     1009     1006 1
     808     1010     1008 1
     809     1012     1011 1
     810     1013     1012 1
     811     1014     1011 1
     812     1015     1013 1
     813     1017     1016 1
     814     1018     1017 1
     815     1019     1016 1
     816     1020     1018 1
     817     1022     1021 1
     818     1023     1022 1
     819     1024     1021 1
     820     1025     1023 1
     821     1027     1026 1
     822     1028     1027 1
     823     1029     1026 1
     824     1030     1028 1
     825     1032     1031 1
     826     1033     1032 1
     827     1034     1031 1
     828     1035     1033 1
     829     1037     1036 1
     830     1038     1037 1
     831     1039     1036 1
     832     1040     1038 1
     833     1042     1041 1
     834     1043     1042 1
     835     1044     1041 1
     836     1045     1043 1
     837     1047     1046 1
     838     1048     1047 1
     839     1049     1046 1
     840     1050     1048 1
     841     1052     1051 1
     842     1053     1052 1
     843     1054     1051 1
     844     1055     1053 1
     845     1057     1056 1
     846     1058     1057 1
     847     1059     1056 1
     848     1060     1058 1
     849     1062     1061 1
     850     1063     1062 1
     851     1064     1061 1
     852     1065     1063 1
     853     1067     1066 1
     854     1068     1067 1
     855     1069     1066 1
     856     1070     1068 1
     857     1072     1071 1
     858     1073     1072 1
     859     1074     1071 1
     860     1075     1073 1
     861     1077     1076 1
     862     1078     1077 1
     863     1079     1076 1
     864     1080     1078 1
     865     1082     1081 1
     866     1083     1082 1
     867     1084     1081 1
     868     1085     1083 1
     869     1087     1086 1
     870     1088     1087 1
     871     1089     1086 1
     872     1090     1088 1
     873     1092     1091 1
     874     1093     1092 1
     875     1094     1091 1
     876     1095     1093 1
     877     1097     1096 1
     878     1098     1097 1
     879     1099     1096 1
     880     1100     1098 1
     881     1102     1101 1
     882     1103     1102 1
     883     1104     1101 1
     884     1105     1103 1
     885     1107     1106 1
     886     1108     1107 1
     887     1109     1106 1
     888     1110     1108 1
     889     1112     1111 1
     890     1113     1112 1
     891     1114     1111 1
     892     1115     1113 1
     893     1117     1116 1
     894     1118     1117 1
     895     1119     1116 1
     896     1120     1118 1
     897     1122     1121 1
     898     1123     1122 1
     899     1124     1121 1
     900     1125     1123 1
     901     1127     1126 1
     902     1128     1127 1
     903     1129     1126 1
     904     1130     1128 1
     905     1132     1131 1
     906     1133     1132 1
     907     1134     1131 1
     908     1135     1133 1
     909     1137     1136 1
     910     1138     1137 1
     911     1139     1136 1
     912     1140     1138 1
     913     1142     1141 1
     914     1143     1142 1
     915     1144     1141 1
     916     1145     1143 1
     917     1147     1146 1
     918     1148     1147 1
     919     1149     1146 1
     920     1150     1148 1
     921     1152     1151 1
     922     1153     1152 1
     923     1154     1151 1
     924     1155     1153 1
     925     1157     1156 1
     926     1158     1157 1
     927     1159     1156 1
     928     1160     1158 1
     929     1162     1161 1
     930     1163     1162 1
     931     1164     1161 1
     932     1165     1163 1
     933     1167     1166 1
     934     1168     1167 1
     935     1169     1166 1
     936     1170     1168 1
     937     1172     1171 1
     938     1173     1172 1
     939     1174     1171 1
     940     1175     1173 1
     941     1177     1176 1
     942     1178     1177 1
     943     1179     1176 1
     944     1180     1178 1
     945     1182     1181 1
     946     1183     1182 1
     947     1184     1181 1
     948     1185     1183 1
     949     1187     1186 1
     950     1188     1187 1
     951     1189     1186 1
     952     1190     1188 1
     953     1192     1191 1
     954     1193     1192 1
     955     1194     1191 1
     956     1195     1193 1
     957     1197     1196 1
     958     1198     1197 1
     959     1199     1196 1
     960     1200     1198 1
     961     1202     1201 1
     962     1203     1202 1
     963     1204     1201 1
     964     1205     1203 1
     965     1207     1206 1
     966     1208     1207 1
     967     1209     1206 1
     968     1210     1208 1
     969     1212     1211 1
     970     1213     1212 1
     971     1214     1211 1
     972     1215     1213 1
     973     1217     1216 1
     974     1218     1217 1
     975     1219     1216 1
     976     1220     1218 1
     977     1222     1221 1
     978     1223     1222 1
     979     1224     1221 1
     980     1225     1223 1
     981     1227     1226 1
     982     1228     1227 1
     983     1229     1226 1
     984     1230     1228 1
     985     1232     1231 1
     986     1233     1232 1
     987     1234     1231 1
     988     1235     1233 1
     989     1237     1236 1
     990     1238     1237 1
     991     1239     1236 1
     992     1240     1238 1
     993     1242     1241 1
     994     1243     1242 1
     995     1244     1241 1
     996     1245     1243 1
     997     1247     1246 1
     998     1248     1247 1
     999     1249     1246 1
    1000     1250     1248 1
    1001     1252     1251 1
    1002     1253     1252 1
    1003     1254     1251 1
    1004     1255     1253 1
    1005     1257     1256 1
    1006     1258     1257 1
    1007     1259     1256 1
    1008     1260     1258 1
    1009     1262     1261 1
    1010     1263     1262 1
    1011     1264     1261 1
    1012     1265     1263 1
    1013     1267     1266 1
    1014     1268     1267 1
    1015     1269     1266 1
    1016     1270     1268 1
    1017     1272     1271 1
    1018     1273     1272 1
    1019     1274     1271 1
    1020     1275     1273 1
    1021     1277     1276 1
    1022     1278     1277 1
    1023     1279     1276 1
    1024     1280     1278 1
    1025     1282     1281 1
    1026     1283     1282 1
    1027     1284     1281 1
    1028     1285     1283 1
    1029     1287     1286 1
    1030     1288     1287 1
    1031     1289     1286 1
    1032     1290     1288 1
    1033     1292     1291 1
    1034     1293     1292 1
    1035     1294     1291 1
    1036     1295     1293 1
    1037     1297     1296 1
    1038     1298     1297 1
    1039     1299     1296 1
    1040     1300     1298 1
    1041     1302     1301 1
    1042     1303     1302 1
    1043     1304     1301 1
    1044     1305     1303 1
    1045     1307     1306 1
    1046     1308     1307 1
    1047     1309     1306 1
    1048     1310     1308 1
    1049     1312     1311 1
    1050     1313     1312 1
    1051     1314     1311 1
    1052     1315     1313 1
    1053     1317     1316 1
    1054     1318     1317 1
    1055     1319     1316 1
    1056     1320     1318 1
    1057     1322     1321 1
    1058     1323     1322 1
    1059     1324     1321 1
    1060     1325     1323 1
    1061     1327     1326 1
    1062     1328     1327 1
    1063     1329     1326 1
    1064     1330     1328 1
    1065     1332     1331 1
    1066     1333     1332 1
    1067     1334     1331 1
    1068     1335     1333 1
    1069     1337     1336 1
    1070     1338     1337 1
    1071     1339     1336 1
    1072     1340     1338 1
    1073     1342     1341 1
    1074     1343     1342 1
    1075     1344     1341 1
    1076     1345     1343 1
    1077     1347     1346 1
    1078     1348     1347 1
    1079     1349     1346 1
    1080     1350     1348 1
    1081     1352     1351 1
    1082     1353     1352 1
    1083     1354     1351 1
    1084     1355     1353 1
    1085     1357     1356 1
    1086     1358     1357 1
    1087     1359     1356 1
    1088     1360     1358 1
    1089     1362     1361 1
    1090     1363     1362 1
    1091     1364     1361 1
    1092     1365     1363 1
    1093     1367     1366 1
    1094     1368     1367 1
    1095     1369     1366 1
    1096     1370     1368 1
    1097     1372     1371 1
    1098     1373     1372 1
    1099     1374     1371 1
    1100     1375     1373 1
    1101     1377     1376 1
    1102     1378     1377 1
    1103     1379     1376 1
    1104     1380     1378 1
    1105     1382     1381 1
    1106     1383     1382 1
    1107     1384     1381 1
    1108     1385     1383 1
    1109     1387     1386 1
    1110     1388     1387 1
    1111     1389     1386 1
    1112     1390     1388 1
    1113     1392     1391 1
    1114     1393     1392 1
    1115     1394     1391 1
    1116     1395     1393 1
    1117     1397     1396 1
    1118     1398     1397 1
    1119     1399     1396 1
    1120     1400     1398 1
    1121     1402     1401 1
    1122     1403     1402 1
    1123     1404     1401 1
    1124     1405     1403 1
    1125     1407     1406 1
    1126     1408     1407 1
    1127     1409     1406 1
    1128     1410     1408 1
    1129     1412     1411 1
    1130     1413     1412 1
    1131     1414     1411 1
    1132     1415     1413 1
    1133     1417     1416 1
    1134     1418     1417 1
    1135     1419     1416 1
    1136     1420     1418 1
    1137     1422     1421 1
    1138     1423     1422 1
    1139     1424     1421 1
    1140     1425     1423 1
    1141     1427     1426 1
    1142     1428     1427 1
    1143     1429     1426 1
    1144     1430     1428 1
    1145     1432     1431 1
    1146     1433     1432 1
    1147     1434     1431 1
    1148     1435     1433 1
    1149     1437     1436 1
    1150     1438     1437 1
    1151     1439     1436 1
    1152     1440     1438 1
    1153     1442     1441 1
    1154     1443     1442 1
    1155     1444     1441 1
    1156     1445     1443 1
    1157     1447     1446 1
    1158     1448     1447 1
    1159     1449     1446 1
    1160     1450     1448 1
    1161     1452     1451 1
    1162     1453     1452 1
    1163     1454     1451 1
    1164     1455     1453 1
    1165     1457     1456 1
    1166     1458     1457 1
    1167     1459     1456 1
    1168     1460     1458 1
    1169     1462     1461 1
    1170     1463     1462 1
    1171     1464     1461 1
    1172     1465     1463 1
    1173     1467     1466 1
    1174     1468     1467 1
    1175     1469     1466 1
    1176     1470     1468 1
    1177     1472     1471 1
    1178     1473     1472 1
    1179     1474     1471 1
    1180     1475     1473 1
    1181     1477     1476 1
    1182     1478     1477 1
    1183     1479     1476 1
    1184     1480     1478 1
    1185     1482     1481 1
    1186     1483     1482 1
    1187     1484     1481 1
    1188     1485     1483 1
    1189     1487     1486 1
    1190     1488     1487 1
    1191     1489     1486 1
    1192     1490     1488 1
    1193     1492     1491 1
    1194     1493     1492 1
    1195     1494     1491 1
    1196     1495     1493 1
    1197     1497     1496 1
    1198     1498     1497 1
    1199     1499     1496 1
    1200     1500     1498 1
@<TRIPOS>SUBSTRUCTURE
       1 RES             1 RESIDUE    0 1    ROOT      0
