@<TRIPOS>MOLECULE
RES
4500 4000 1 0 1
SMALL
USER_CHARGES
@<TRIPOS>CRYSIN
   36.4600    36.4600    36.4600    90.0000    90.0000    90.0000  1  1
@<TRIPOS>ATOM
       1 C           19.0010    33.6173    19.3499 opls_135      1 RES       -0.180000
       2 C           19.6403    32.7700    18.2493 opls_157      1 RES        0.145000
       3 O           19.3941    33.1679    16.9192 opls_154      1 RES       -0.683000
       4 H           19.5058    34.1046    16.8645 opls_155      1 RES        0.418000
       5 H           19.3001    31.7539    18.4491 opls_140      1 RES        0.060000
       6 H           20.7276    32.7150    18.3017 opls_140      1 RES        0.060000
       7 H           19.6842    34.4644    19.4110 opls_140      1 RES        0.060000
       8 H           19.0304    33.0969    20.3072 opls_140      1 RES        0.060000
       9 H           17.9692    33.9356    19.2012 opls_140      1 RES        0.060000
      10 C            8.0273    26.3461    30.3651 opls_135      1 RES       -0.180000
      11 C            7.2628    25.6644    31.5004 opls_157      1 RES        0.145000
      12 O            7.7463    25.8773    32.8077 opls_154      1 RES       -0.683000
      13 H            7.9389    26.7972    32.9065 opls_155      1 RES        0.418000
      14 H            7.2477    24.6087    31.2295 opls_140      1 RES        0.060000
      15 H            6.2130    25.9498    31.5674 opls_140      1 RES        0.060000
      16 H            7.6406    27.3642    30.4094 opls_140      1 RES        0.060000
      17 H            7.7457    25.9252    29.3999 opls_140      1 RES        0.060000
      18 H            9.1161    26.3212    30.4089 opls_140      1 RES        0.060000
      19 C            7.6396     2.9901    21.9030 opls_135      1 RES       -0.180000
      20 C            6.7786     3.9674    22.7039 opls_157      1 RES        0.145000
      21 O            6.2054     3.4779    23.8955 opls_154      1 RES       -0.683000
      22 H            6.8680     2.9973    24.3676 opls_155      1 RES        0.418000
      23 H            6.0286     4.3202    21.9960 opls_140      1 RES        0.060000
      24 H            7.3038     4.8671    23.0246 opls_140      1 RES        0.060000
      25 H            8.5849     3.0226    22.4446 opls_140      1 RES        0.060000
      26 H            7.8202     3.3666    20.8962 opls_140      1 RES        0.060000
      27 H            7.2685     1.9712    21.7913 opls_140      1 RES        0.060000
      28 C           10.0250    24.0481    33.5213 opls_135      1 RES       -0.180000
      29 C           10.4373    25.0088    32.4056 opls_157      1 RES        0.145000
      30 O           10.2500    24.5609    31.0818 opls_154      1 RES       -0.683000
      31 H            9.3927    24.1682    31.0202 opls_155      1 RES        0.418000
      32 H           11.4784    25.2510    32.6191 opls_140      1 RES        0.060000
      33 H            9.9186    25.9673    32.4261 opls_140      1 RES        0.060000
      34 H            8.9453    24.1928    33.5590 opls_140      1 RES        0.060000
      35 H           10.4366    24.3660    34.4793 opls_140      1 RES        0.060000
      36 H           10.2918    22.9980    33.4020 opls_140      1 RES        0.060000
      37 C           23.3710    20.9913     4.7309 opls_135      1 RES       -0.180000
      38 C           24.7025    20.2469     4.8355 opls_157      1 RES        0.145000
      39 O           25.2082    19.6820     3.6467 opls_154      1 RES       -0.683000
      40 H           25.1220    20.3202     2.9552 opls_155      1 RES        0.418000
      41 H           24.5429    19.5018     5.6149 opls_140      1 RES        0.060000
      42 H           25.5290    20.8575     5.1991 opls_140      1 RES        0.060000
      43 H           23.6805    21.9565     4.3302 opls_140      1 RES        0.060000
      44 H           22.9435    21.1631     5.7188 opls_140      1 RES        0.060000
      45 H           22.5867    20.5324     4.1289 opls_140      1 RES        0.060000
      46 C           18.4598    17.2045    22.7858 opls_135      1 RES       -0.180000
      47 C           19.4296    16.8791    21.6493 opls_157      1 RES        0.145000
      48 O           20.5244    17.7515    21.4807 opls_154      1 RES       -0.683000
      49 H           20.8972    17.9272    22.3311 opls_155      1 RES        0.418000
      50 H           18.8035    16.8207    20.7590 opls_140      1 RES        0.060000
      51 H           19.8960    15.8970    21.7266 opls_140      1 RES        0.060000
      52 H           18.9872    16.8110    23.6548 opls_140      1 RES        0.060000
      53 H           17.5321    16.6426    22.6775 opls_140      1 RES        0.060000
      54 H           18.1766    18.2486    22.9189 opls_140      1 RES        0.060000
      55 C           33.6577    13.2906    24.5339 opls_135      1 RES       -0.180000
      56 C           32.9202    12.7327    25.7517 opls_157      1 RES        0.145000
      57 O           33.7106    12.1211    26.7463 opls_154      1 RES       -0.683000
      58 H           34.4608    12.6721    26.9092 opls_155      1 RES        0.418000
      59 H           32.1748    12.0540    25.3372 opls_140      1 RES        0.060000
      60 H           32.3443    13.4748    26.3046 opls_140      1 RES        0.060000
      61 H           34.0315    14.2427    24.9105 opls_140      1 RES        0.060000
      62 H           32.9617    13.5041    23.7227 opls_140      1 RES        0.060000
      63 H           34.4536    12.6800    24.1074 opls_140      1 RES        0.060000
      64 C           22.4008    27.3839    10.0624 opls_135      1 RES       -0.180000
      65 C           23.1199    28.6808     9.6900 opls_157      1 RES        0.145000
      66 O           22.4287    29.5672     8.8387 opls_154      1 RES       -0.683000
      67 H           21.5378    29.6388     9.1457 opls_155      1 RES        0.418000
      68 H           24.0725    28.3585     9.2695 opls_140      1 RES        0.060000
      69 H           23.3887    29.3042    10.5428 opls_140      1 RES        0.060000
      70 H           21.7270    27.7159    10.8523 opls_140      1 RES        0.060000
      71 H           23.0956    26.6659    10.4981 opls_140      1 RES        0.060000
      72 H           21.8703    26.8595     9.2677 opls_140      1 RES        0.060000
      73 C           32.4530    23.7439     3.2713 opls_135      1 RES       -0.180000
      74 C           33.8711    24.2192     3.5892 opls_157      1 RES        0.145000
      75 O           34.0238    25.5808     3.9220 opls_154      1 RES       -0.683000
      76 H           33.3416    25.8151     4.5324 opls_155      1 RES        0.418000
      77 H           34.4603    23.9357     2.7171 opls_140      1 RES        0.060000
      78 H           34.3409    23.6987     4.4238 opls_140      1 RES        0.060000
      79 H           32.0284    23.6126     4.2666 opls_140      1 RES        0.060000
      80 H           32.4701    22.7682     2.7859 opls_140      1 RES        0.060000
      81 H           31.8364    24.3905     2.6470 opls_140      1 RES        0.060000
      82 C           11.3443     5.5575     9.9458 opls_135      1 RES       -0.180000
      83 C           10.2938     6.0715    10.9307 opls_157      1 RES        0.145000
      84 O            8.9690     5.6321    10.7312 opls_154      1 RES       -0.683000
      85 H            8.9871     4.7023    10.5635 opls_155      1 RES        0.418000
      86 H           10.3826     7.1571    10.8889 opls_140      1 RES        0.060000
      87 H           10.4931     5.8157    11.9713 opls_140      1 RES        0.060000
      88 H           11.5508     4.5598    10.3331 opls_140      1 RES        0.060000
      89 H           12.2632     6.1393    10.0192 opls_140      1 RES        0.060000
      90 H           11.0735     5.5371     8.8901 opls_140      1 RES        0.060000
      91 C           12.9218    20.6792     6.5188 opls_135      1 RES       -0.180000
      92 C           13.4397    21.8359     5.6634 opls_157      1 RES        0.145000
      93 O           13.9840    21.5009     4.4065 opls_154      1 RES       -0.683000
      94 H           13.4074    20.8786     3.9901 opls_155      1 RES        0.418000
      95 H           14.1554    22.3538     6.3017 opls_140      1 RES        0.060000
      96 H           12.6868    22.5866     5.4230 opls_140      1 RES        0.060000
      97 H           11.9440    20.4887     6.0764 opls_140      1 RES        0.060000
      98 H           12.7641    20.9983     7.5490 opls_140      1 RES        0.060000
      99 H           13.5319    19.7770     6.5633 opls_140      1 RES        0.060000
     100 C           33.7921    17.4175    27.7041 opls_135      1 RES       -0.180000
     101 C           32.5397    16.5446    27.6183 opls_157      1 RES        0.145000
     102 O           31.8345    16.3275    28.8198 opls_154      1 RES       -0.683000
     103 H           31.7562    17.1542    29.2710 opls_155      1 RES        0.418000
     104 H           32.8806    15.6150    27.1625 opls_140      1 RES        0.060000
     105 H           31.7758    16.9237    26.9395 opls_140      1 RES        0.060000
     106 H           33.3694    18.4222    27.7104 opls_140      1 RES        0.060000
     107 H           34.3978    17.3174    26.8034 opls_140      1 RES        0.060000
     108 H           34.4614    17.2514    28.5482 opls_140      1 RES        0.060000
     109 C            2.3973     7.3828     5.9771 opls_135      1 RES       -0.180000
     110 C            3.9054     7.5204     6.1885 opls_157      1 RES        0.145000
     111 O            4.5018     8.7173     5.7413 opls_154      1 RES       -0.683000
     112 H            3.9583     9.4399     6.0160 opls_155      1 RES        0.418000
     113 H            4.3336     6.6390     5.7112 opls_140      1 RES        0.060000
     114 H            4.2192     7.4531     7.2302 opls_140      1 RES        0.060000
     115 H            1.9970     7.9654     6.8068 opls_140      1 RES        0.060000
     116 H            2.0789     6.3492     6.1126 opls_140      1 RES        0.060000
     117 H            1.9943     7.7087     5.0182 opls_140      1 RES        0.060000
     118 C            9.9272    18.1974    26.2288 opls_135      1 RES       -0.180000
     119 C           10.3915    19.6206    25.9173 opls_157      1 RES        0.145000
     120 O           10.1034    20.1136    24.6281 opls_154      1 RES       -0.683000
     121 H            9.2078    19.8950    24.4204 opls_155      1 RES        0.418000
     122 H           11.4602    19.6165    26.1317 opls_140      1 RES        0.060000
     123 H            9.9775    20.3812    26.5793 opls_140      1 RES        0.060000
     124 H            8.8712    18.3465    26.4538 opls_140      1 RES        0.060000
     125 H           10.4092    17.8204    27.1307 opls_140      1 RES        0.060000
     126 H           10.0771    17.4418    25.4576 opls_140      1 RES        0.060000
     127 C           26.5330    25.5879     6.3170 opls_135      1 RES       -0.180000
     128 C           25.1739    25.7025     7.0081 opls_157      1 RES        0.145000
     129 O           25.1758    25.6820     8.4180 opls_154      1 RES       -0.683000
     130 H           25.8656    26.2521     8.7218 opls_155      1 RES        0.418000
     131 H           24.5773    24.8962     6.5814 opls_140      1 RES        0.060000
     132 H           24.6248    26.6128     6.7673 opls_140      1 RES        0.060000
     133 H           26.9139    26.6064     6.3933 opls_140      1 RES        0.060000
     134 H           26.4122    25.3568     5.2586 opls_140      1 RES        0.060000
     135 H           27.2376    24.8581     6.7156 opls_140      1 RES        0.060000
     136 C            2.8676    31.4733     6.0248 opls_135      1 RES       -0.180000
     137 C            4.1589    31.4520     5.2063 opls_157      1 RES        0.145000
     138 O            5.3361    31.8570     5.8683 opls_154      1 RES       -0.683000
     139 H            5.3552    31.4442     6.7182 opls_155      1 RES        0.418000
     140 H            3.9423    32.0646     4.3311 opls_140      1 RES        0.060000
     141 H            4.4172    30.4726     4.8036 opls_140      1 RES        0.060000
     142 H            2.9422    30.5455     6.5921 opls_140      1 RES        0.060000
     143 H            1.9952    31.3969     5.3759 opls_140      1 RES        0.060000
     144 H            2.6989    32.3343     6.6717 opls_140      1 RES        0.060000
     145 C            2.9673    12.0522    25.5762 opls_135      1 RES       -0.180000
     146 C            2.7971    11.3244    26.9101 opls_157      1 RES        0.145000
     147 O            3.9502    10.7249    27.4570 opls_154      1 RES       -0.683000
     148 H            4.6651    11.3389    27.3869 opls_155      1 RES        0.418000
     149 H            1.9984    10.6042    26.7328 opls_140      1 RES        0.060000
     150 H            2.4291    11.9546    27.7198 opls_140      1 RES        0.060000
     151 H            3.3906    13.0064    25.8899 opls_140      1 RES        0.060000
     152 H            1.9993    12.2528    25.1170 opls_140      1 RES        0.060000
     153 H            3.5773    11.5661    24.8149 opls_140      1 RES        0.060000
     154 C           23.3333    26.5634    18.8001 opls_135      1 RES       -0.180000
     155 C           24.7843    26.5962    18.3192 opls_157      1 RES        0.145000
     156 O           25.1938    25.5501    17.4671 opls_154      1 RES       -0.683000
     157 H           24.5237    25.4207    16.8134 opls_155      1 RES        0.418000
     158 H           25.3778    26.6452    19.2322 opls_140      1 RES        0.060000
     159 H           25.0516    27.4958    17.7647 opls_140      1 RES        0.060000
     160 H           22.7995    26.9702    17.9413 opls_140      1 RES        0.060000
     161 H           23.1860    27.2461    19.6370 opls_140      1 RES        0.060000
     162 H           22.9306    25.5995    19.1113 opls_140      1 RES        0.060000
     163 C            8.8086     4.6495    31.6838 opls_135      1 RES       -0.180000
     164 C            7.8592     4.4750    32.8696 opls_157      1 RES        0.145000
     165 O            7.9029     3.2351    33.5397 opls_154      1 RES       -0.683000
     166 H            8.8089     3.0015    33.6723 opls_155      1 RES        0.418000
     167 H            6.8704     4.6958    32.4677 opls_140      1 RES        0.060000
     168 H            8.0036     5.2018    33.6690 opls_140      1 RES        0.060000
     169 H            9.7518     4.8797    32.1791 opls_140      1 RES        0.060000
     170 H            8.5273     5.5159    31.0853 opls_140      1 RES        0.060000
     171 H            8.9050     3.8126    30.9921 opls_140      1 RES        0.060000
     172 C           24.7244    28.3043    12.5091 opls_135      1 RES       -0.180000
     173 C           25.8804    27.6625    11.7412 opls_157      1 RES        0.145000
     174 O           27.1193    28.3344    11.7822 opls_154      1 RES       -0.683000
     175 H           27.2850    28.5965    12.6749 opls_155      1 RES        0.418000
     176 H           25.5055    27.5433    10.7247 opls_140      1 RES        0.060000
     177 H           26.1276    26.6521    12.0671 opls_140      1 RES        0.060000
     178 H           24.9302    27.9926    13.5331 opls_140      1 RES        0.060000
     179 H           23.7711    27.8661    12.2135 opls_140      1 RES        0.060000
     180 H           24.6078    29.3849    12.4275 opls_140      1 RES        0.060000
     181 C           30.9415    15.4148    24.4441 opls_135      1 RES       -0.180000
     182 C           29.9670    15.0827    25.5746 opls_157      1 RES        0.145000
     183 O           29.5240    13.7467    25.6578 opls_154      1 RES       -0.683000
     184 H           30.2718    13.1791    25.5500 opls_155      1 RES        0.418000
     185 H           29.1444    15.7863    25.4469 opls_140      1 RES        0.060000
     186 H           30.3543    15.2853    26.5731 opls_140      1 RES        0.060000
     187 H           31.8893    15.0602    24.8490 opls_140      1 RES        0.060000
     188 H           31.0220    16.4929    24.3050 opls_140      1 RES        0.060000
     189 H           30.7330    14.9899    23.4623 opls_140      1 RES        0.060000
     190 C           25.1859    29.1418    33.8904 opls_135      1 RES       -0.180000
     191 C           23.7586    28.7725    33.4853 opls_157      1 RES        0.145000
     192 O           22.9405    29.8215    33.0181 opls_154      1 RES       -0.683000
     193 H           23.4430    30.3405    32.4089 opls_155      1 RES        0.418000
     194 H           23.3407    28.2783    34.3624 opls_140      1 RES        0.060000
     195 H           23.6974    28.0285    32.6910 opls_140      1 RES        0.060000
     196 H           25.6913    29.1899    32.9258 opls_140      1 RES        0.060000
     197 H           25.6460    28.3394    34.4671 opls_140      1 RES        0.060000
     198 H           25.3218    30.0563    34.4679 opls_140      1 RES        0.060000
     199 C           11.1392    32.3469    26.5876 opls_135      1 RES       -0.180000
     200 C           10.1108    33.4513    26.3415 opls_157      1 RES        0.145000
     201 O            9.7489    34.2399    27.4530 opls_154      1 RES       -0.683000
     202 H           10.5371    34.4776    27.9170 opls_155      1 RES        0.418000
     203 H            9.2561    32.9403    25.8983 opls_140      1 RES        0.060000
     204 H           10.4134    34.1862    25.5955 opls_140      1 RES        0.060000
     205 H           12.0769    32.9025    26.5775 opls_140      1 RES        0.060000
     206 H           11.1606    31.6436    25.7551 opls_140      1 RES        0.060000
     207 H           11.0276    31.7517    27.4939 opls_140      1 RES        0.060000
     208 C           30.7608     2.8973    33.8542 opls_135      1 RES       -0.180000
     209 C           30.5174     2.7660    32.3504 opls_157      1 RES        0.145000
     210 O           29.4025     1.9998    31.9530 opls_154      1 RES       -0.683000
     211 H           28.6659     2.2472    32.4909 opls_155      1 RES        0.418000
     212 H           31.4536     2.3757    31.9512 opls_140      1 RES        0.060000
     213 H           30.3701     3.7159    31.8364 opls_140      1 RES        0.060000
     214 H           30.0490     3.6742    34.1331 opls_140      1 RES        0.060000
     215 H           31.7627     3.2773    34.0537 opls_140      1 RES        0.060000
     216 H           30.6429     1.9995    34.4608 opls_140      1 RES        0.060000
     217 C           21.4109    27.8302    25.2278 opls_135      1 RES       -0.180000
     218 C           21.1854    27.2646    23.8253 opls_157      1 RES        0.145000
     219 O           22.2572    27.3776    22.9162 opls_154      1 RES       -0.683000
     220 H           23.0517    27.1263    23.3619 opls_155      1 RES        0.418000
     221 H           20.2832    27.7611    23.4681 opls_140      1 RES        0.060000
     222 H           20.9449    26.2017    23.8048 opls_140      1 RES        0.060000
     223 H           21.9816    27.0338    25.7055 opls_140      1 RES        0.060000
     224 H           20.4665    27.9293    25.7631 opls_140      1 RES        0.060000
     225 H           21.9136    28.7943    25.3042 opls_140      1 RES        0.060000
     226 C           27.3065    21.3817    22.2782 opls_135      1 RES       -0.180000
     227 C           28.2495    20.2635    21.8328 opls_157      1 RES        0.145000
     228 O           28.8120    19.4657    22.8502 opls_154      1 RES       -0.683000
     229 H           28.1276    19.2375    23.4606 opls_155      1 RES        0.418000
     230 H           29.0073    20.7639    21.2300 opls_140      1 RES        0.060000
     231 H           27.7947    19.5359    21.1606 opls_140      1 RES        0.060000
     232 H           26.3771    20.8397    22.4531 opls_140      1 RES        0.060000
     233 H           27.1316    22.0883    21.4669 opls_140      1 RES        0.060000
     234 H           27.6037    21.9718    23.1451 opls_140      1 RES        0.060000
     235 C           31.5061    27.9870    12.0306 opls_135      1 RES       -0.180000
     236 C           32.0375    28.7217    13.2617 opls_157      1 RES        0.145000
     237 O           31.8092    30.1120    13.3180 opls_154      1 RES       -0.683000
     238 H           30.9122    30.2754    13.0698 opls_155      1 RES        0.418000
     239 H           33.0981    28.4727    13.2967 opls_140      1 RES        0.060000
     240 H           31.6350    28.3590    14.2075 opls_140      1 RES        0.060000
     241 H           30.4507    27.8668    12.2750 opls_140      1 RES        0.060000
     242 H           31.9446    26.9921    11.9528 opls_140      1 RES        0.060000
     243 H           31.6484    28.4656    11.0617 opls_140      1 RES        0.060000
     244 C           33.6745    14.5633     7.6859 opls_135      1 RES       -0.180000
     245 C           33.7795    15.9004     6.9518 opls_157      1 RES        0.145000
     246 O           34.1672    15.8511     5.5970 opls_154      1 RES       -0.683000
     247 H           33.6785    15.1619     5.1737 opls_155      1 RES        0.418000
     248 H           34.4616    16.4964     7.5580 opls_140      1 RES        0.060000
     249 H           32.8525    16.4733     6.9309 opls_140      1 RES        0.060000
     250 H           32.7018    14.1982     7.3562 opls_140      1 RES        0.060000
     251 H           33.6245    14.7151     8.7641 opls_140      1 RES        0.060000
     252 H           34.4646    13.8329     7.5116 opls_140      1 RES        0.060000
     253 C           18.1951    11.6885    23.0753 opls_135      1 RES       -0.180000
     254 C           19.4426    12.2812    22.4193 opls_157      1 RES        0.145000
     255 O           19.3107    13.5644    21.8499 opls_154      1 RES       -0.683000
     256 H           18.8402    14.1122    22.4594 opls_155      1 RES        0.418000
     257 H           19.7544    11.5330    21.6906 opls_140      1 RES        0.060000
     258 H           20.2941    12.3871    23.0915 opls_140      1 RES        0.060000
     259 H           18.1892    12.1865    24.0449 opls_140      1 RES        0.060000
     260 H           18.3192    10.6200    23.2511 opls_140      1 RES        0.060000
     261 H           17.2478    11.8086    22.5495 opls_140      1 RES        0.060000
     262 C            5.7746    31.9867    12.8299 opls_135      1 RES       -0.180000
     263 C            5.0600    30.9830    11.9245 opls_157      1 RES        0.145000
     264 O            5.3544    31.0499    10.5472 opls_154      1 RES       -0.683000
     265 H            6.2904    31.1328    10.4478 opls_155      1 RES        0.418000
     266 H            3.9998    31.1298    12.1307 opls_140      1 RES        0.060000
     267 H            5.2506    29.9395    12.1753 opls_140      1 RES        0.060000
     268 H            6.7542    31.5250    12.9532 opls_140      1 RES        0.060000
     269 H            5.3017    32.0301    13.8110 opls_140      1 RES        0.060000
     270 H            5.8501    33.0149    12.4760 opls_140      1 RES        0.060000
     271 C           21.8024    23.0114    26.0490 opls_135      1 RES       -0.180000
     272 C           21.7755    24.3903    26.7090 opls_157      1 RES        0.145000
     273 O           22.9067    25.2091    26.5134 opls_154      1 RES       -0.683000
     274 H           23.1459    25.1708    25.6000 opls_155      1 RES        0.418000
     275 H           21.5852    24.1892    27.7633 opls_140      1 RES        0.060000
     276 H           20.9458    25.0221    26.3919 opls_140      1 RES        0.060000
     277 H           21.5317    23.2464    25.0196 opls_140      1 RES        0.060000
     278 H           21.0231    22.3692    26.4593 opls_140      1 RES        0.060000
     279 H           22.7327    22.4464    26.1071 opls_140      1 RES        0.060000
     280 C            3.8941     4.5536    19.5412 opls_135      1 RES       -0.180000
     281 C            2.9764     3.3945    19.9315 opls_157      1 RES        0.145000
     282 O            3.2966     2.1268    19.4037 opls_154      1 RES       -0.683000
     283 H            4.2273     1.9930    19.4978 opls_155      1 RES        0.418000
     284 H            1.9774     3.7237    19.6456 opls_140      1 RES        0.060000
     285 H            2.9140     3.2152    21.0048 opls_140      1 RES        0.060000
     286 H            4.7366     4.4152    20.2188 opls_140      1 RES        0.060000
     287 H            3.4314     5.5118    19.7776 opls_140      1 RES        0.060000
     288 H            4.2130     4.6112    18.5005 opls_140      1 RES        0.060000
     289 C           23.8577    21.3335    14.6847 opls_135      1 RES       -0.180000
     290 C           22.6654    20.6058    14.0629 opls_157      1 RES        0.145000
     291 O           22.1029    21.1836    12.9062 opls_154      1 RES       -0.683000
     292 H           22.8069    21.4344    12.3278 opls_155      1 RES        0.418000
     293 H           21.9436    20.5129    14.8743 opls_140      1 RES        0.060000
     294 H           22.8761    19.5805    13.7588 opls_140      1 RES        0.060000
     295 H           24.6802    21.0094    14.0472 opls_140      1 RES        0.060000
     296 H           24.0538    20.9670    15.6924 opls_140      1 RES        0.060000
     297 H           23.8001    22.4197    14.7553 opls_140      1 RES        0.060000
     298 C           17.4209    25.1446    12.7181 opls_135      1 RES       -0.180000
     299 C           18.5045    24.4847    13.5714 opls_157      1 RES        0.145000
     300 O           18.6250    24.9344    14.9024 opls_154      1 RES       -0.683000
     301 H           17.7584    24.9956    15.2742 opls_155      1 RES        0.418000
     302 H           19.4247    24.6182    13.0026 opls_140      1 RES        0.060000
     303 H           18.3959    23.4052    13.6761 opls_140      1 RES        0.060000
     304 H           16.5233    24.6184    13.0430 opls_140      1 RES        0.060000
     305 H           17.5711    24.9244    11.6612 opls_140      1 RES        0.060000
     306 H           17.3106    26.2261    12.7973 opls_140      1 RES        0.060000
     307 C           11.9060     2.9605    26.7840 opls_135      1 RES       -0.180000
     308 C           11.8552     3.9429    27.9545 opls_157      1 RES        0.145000
     309 O           10.5799     4.2427    28.4759 opls_154      1 RES       -0.683000
     310 H           10.0999     3.4339    28.5683 opls_155      1 RES        0.418000
     311 H           12.3762     4.8301    27.5943 opls_140      1 RES        0.060000
     312 H           12.4203     3.6246    28.8306 opls_140      1 RES        0.060000
     313 H           11.8181     1.9989    27.2898 opls_140      1 RES        0.060000
     314 H           12.8790     2.9904    26.2937 opls_140      1 RES        0.060000
     315 H           11.1590     3.0779    25.9989 opls_140      1 RES        0.060000
     316 C           18.5870    23.5839     6.2421 opls_135      1 RES       -0.180000
     317 C           18.6307    22.0565     6.1890 opls_157      1 RES        0.145000
     318 O           17.8882    21.4361     5.1633 opls_154      1 RES       -0.683000
     319 H           18.0493    21.9022     4.3572 opls_155      1 RES        0.418000
     320 H           18.3163    21.7356     7.1822 opls_140      1 RES        0.060000
     321 H           19.6311    21.6415     6.0660 opls_140      1 RES        0.060000
     322 H           19.3055    23.8593     5.4700 opls_140      1 RES        0.060000
     323 H           18.9670    23.9504     7.1957 opls_140      1 RES        0.060000
     324 H           17.6200    24.0629     6.0886 opls_140      1 RES        0.060000
     325 C           17.1737    27.4881    23.3200 opls_135      1 RES       -0.180000
     326 C           17.8087    28.6578    24.0727 opls_157      1 RES        0.145000
     327 O           18.3691    29.6870    23.2886 opls_154      1 RES       -0.683000
     328 H           17.7613    29.8965    22.5960 opls_155      1 RES        0.418000
     329 H           18.5395    28.1960    24.7366 opls_140      1 RES        0.060000
     330 H           17.1247    29.1868    24.7363 opls_140      1 RES        0.060000
     331 H           16.2002    27.8949    23.0464 opls_140      1 RES        0.060000
     332 H           17.0052    26.6427    23.9870 opls_140      1 RES        0.060000
     333 H           17.7106    27.0987    22.4550 opls_140      1 RES        0.060000
     334 C           19.9939    16.9605    29.7051 opls_135      1 RES       -0.180000
     335 C           21.1750    17.6345    30.4041 opls_157      1 RES        0.145000
     336 O           21.3217    17.3849    31.7840 opls_154      1 RES       -0.683000
     337 H           21.2016    16.4593    31.9323 opls_155      1 RES        0.418000
     338 H           21.0587    18.6956    30.1836 opls_140      1 RES        0.060000
     339 H           22.1489    17.3697    29.9923 opls_140      1 RES        0.060000
     340 H           20.3701    15.9499    29.5458 opls_140      1 RES        0.060000
     341 H           19.8154    17.4068    28.7269 opls_140      1 RES        0.060000
     342 H           19.0366    16.9618    30.2263 opls_140      1 RES        0.060000
     343 C            9.4088    15.5837    23.5526 opls_135      1 RES       -0.180000
     344 C            8.2999    15.1090    22.6130 opls_157      1 RES        0.145000
     345 O            8.5651    15.1840    21.2302 opls_154      1 RES       -0.683000
     346 H            9.4355    14.8495    21.0767 opls_155      1 RES        0.418000
     347 H            7.4247    15.6915    22.9007 opls_140      1 RES        0.060000
     348 H            8.0035    14.0703    22.7595 opls_140      1 RES        0.060000
     349 H           10.0764    14.7222    23.5705 opls_140      1 RES        0.060000
     350 H            9.0262    15.7287    24.5629 opls_140      1 RES        0.060000
     351 H            9.9337    16.5007    23.2848 opls_140      1 RES        0.060000
     352 C            6.8788     9.1210    19.7047 opls_135      1 RES       -0.180000
     353 C            5.6450     8.3511    19.2324 opls_157      1 RES        0.145000
     354 O            5.5551     8.0833    17.8510 opls_154      1 RES       -0.683000
     355 H            6.3976     7.7760    17.5531 opls_155      1 RES        0.418000
     356 H            4.7988     8.9320    19.5993 opls_140      1 RES        0.060000
     357 H            5.5282     7.3689    19.6904 opls_140      1 RES        0.060000
     358 H            7.6351     8.3371    19.7440 opls_140      1 RES        0.060000
     359 H            6.7374     9.4975    20.7177 opls_140      1 RES        0.060000
     360 H            7.2015     9.9690    19.1006 opls_140      1 RES        0.060000
     361 C            2.6097    18.7532    31.4049 opls_135      1 RES       -0.180000
     362 C            2.8634    17.4774    30.6014 opls_157      1 RES        0.145000
     363 O            3.8645    16.6110    31.0866 opls_154      1 RES       -0.683000
     364 H            3.7501    16.5193    32.0202 opls_155      1 RES        0.418000
     365 H            3.0688    17.8241    29.5886 opls_140      1 RES        0.060000
     366 H            1.9921    16.8300    30.5028 opls_140      1 RES        0.060000
     367 H            1.9858    18.3882    32.2208 opls_140      1 RES        0.060000
     368 H            2.0192    19.4648    30.8277 opls_140      1 RES        0.060000
     369 H            3.4811    19.2969    31.7698 opls_140      1 RES        0.060000
     370 C            8.5373    30.3722    23.9822 opls_135      1 RES       -0.180000
     371 C            7.2619    30.3150    23.1408 opls_157      1 RES        0.145000
     372 O            6.8975    31.4953    22.4608 opls_154      1 RES       -0.683000
     373 H            7.6708    31.8523    22.0514 opls_155      1 RES        0.418000
     374 H            6.4892    29.9777    23.8316 opls_140      1 RES        0.060000
     375 H            7.2791    29.5620    22.3529 opls_140      1 RES        0.060000
     376 H            9.3140    30.2511    23.2270 opls_140      1 RES        0.060000
     377 H            8.5952    29.5190    24.6582 opls_140      1 RES        0.060000
     378 H            8.6961    31.2621    24.5912 opls_140      1 RES        0.060000
     379 C           13.7799    31.2493     2.8158 opls_135      1 RES       -0.180000
     380 C           13.8748    30.1472     3.8713 opls_157      1 RES        0.145000
     381 O           15.1682    29.8047     4.3159 opls_154      1 RES       -0.683000
     382 H           15.6467    30.6031     4.4792 opls_155      1 RES        0.418000
     383 H           13.3470    29.2992     3.4348 opls_140      1 RES        0.060000
     384 H           13.3373    30.3644     4.7944 opls_140      1 RES        0.060000
     385 H           13.8792    32.1516     3.4190 opls_140      1 RES        0.060000
     386 H           12.7913    31.2634     2.3568 opls_140      1 RES        0.060000
     387 H           14.5010    31.2236     1.9988 opls_140      1 RES        0.060000
     388 C            3.0495    11.8352    32.5155 opls_135      1 RES       -0.180000
     389 C            2.7989    10.6916    33.4989 opls_157      1 RES        0.145000
     390 O            3.9111     9.8962    33.8432 opls_154      1 RES       -0.683000
     391 H            4.6412    10.4690    34.0220 opls_155      1 RES        0.418000
     392 H            1.9951    10.1096    33.0480 opls_140      1 RES        0.060000
     393 H            2.4047    11.0098    34.4641 opls_140      1 RES        0.060000
     394 H            3.4765    12.6020    33.1619 opls_140      1 RES        0.060000
     395 H            2.1096    12.2199    32.1196 opls_140      1 RES        0.060000
     396 H            3.6860    11.6260    31.6557 opls_140      1 RES        0.060000
     397 C           16.5350     5.7330    10.3802 opls_135      1 RES       -0.180000
     398 C           16.9387     4.3111    10.7713 opls_157      1 RES        0.145000
     399 O           16.9173     4.0014    12.1467 opls_154      1 RES       -0.683000
     400 H           16.1156     4.3406    12.5145 opls_155      1 RES        0.418000
     401 H           17.9251     4.1716    10.3290 opls_140      1 RES        0.060000
     402 H           16.3207     3.5319    10.3251 opls_140      1 RES        0.060000
     403 H           15.4469     5.6785    10.4147 opls_140      1 RES        0.060000
     404 H           16.8245     5.9500     9.3520 opls_140      1 RES        0.060000
     405 H           16.9218     6.5491    10.9905 opls_140      1 RES        0.060000
     406 C           16.6481    27.4818     3.0289 opls_135      1 RES       -0.180000
     407 C           16.8952    27.2086     4.5129 opls_157      1 RES        0.145000
     408 O           17.5211    28.2341     5.2508 opls_154      1 RES       -0.683000
     409 H           17.1114    29.0549     5.0240 opls_155      1 RES        0.418000
     410 H           17.4613    26.2773     4.5326 opls_140      1 RES        0.060000
     411 H           15.9920    26.9976     5.0854 opls_140      1 RES        0.060000
     412 H           15.7481    28.0961     3.0573 opls_140      1 RES        0.060000
     413 H           16.4051    26.5605     2.4996 opls_140      1 RES        0.060000
     414 H           17.4506    27.9600     2.4674 opls_140      1 RES        0.060000
     415 C           25.2716    19.0912    20.0137 opls_135      1 RES       -0.180000
     416 C           25.7984    20.4448    19.5362 opls_157      1 RES        0.145000
     417 O           27.1727    20.5180    19.2296 opls_154      1 RES       -0.683000
     418 H           27.4029    19.7584    18.7167 opls_155      1 RES        0.418000
     419 H           25.5090    21.1463    20.3187 opls_140      1 RES        0.060000
     420 H           25.3156    20.8196    18.6337 opls_140      1 RES        0.060000
     421 H           25.1549    18.5484    19.0756 opls_140      1 RES        0.060000
     422 H           24.2838    19.1952    20.4625 opls_140      1 RES        0.060000
     423 H           25.8816    18.5408    20.7300 opls_140      1 RES        0.060000
     424 C            8.4071    27.4700     3.2581 opls_135      1 RES       -0.180000
     425 C            6.9273    27.7594     3.0046 opls_157      1 RES        0.145000
     426 O            6.0493    26.6570     3.0471 opls_154      1 RES       -0.683000
     427 H            6.2648    26.1354     3.8051 opls_155      1 RES        0.418000
     428 H            6.9060    28.2711     2.0423 opls_140      1 RES        0.060000
     429 H            6.4832    28.4661     3.7056 opls_140      1 RES        0.060000
     430 H            8.4432    27.4038     4.3455 opls_140      1 RES        0.060000
     431 H            9.0255    28.3152     2.9559 opls_140      1 RES        0.060000
     432 H            8.8336    26.5873     2.7816 opls_140      1 RES        0.060000
     433 C           13.7859    12.0558    10.0673 opls_135      1 RES       -0.180000
     434 C           13.3722    11.4247     8.7375 opls_157      1 RES        0.145000
     435 O           12.0690    10.8911     8.6671 opls_154      1 RES       -0.683000
     436 H           11.4727    11.5130     9.0554 opls_155      1 RES        0.418000
     437 H           14.1391    10.6770     8.5352 opls_140      1 RES        0.060000
     438 H           13.4153    12.1049     7.8868 opls_140      1 RES        0.060000
     439 H           13.3194    13.0391    10.0076 opls_140      1 RES        0.060000
     440 H           14.8653    12.2021    10.1086 opls_140      1 RES        0.060000
     441 H           13.5090    11.5279    10.9798 opls_140      1 RES        0.060000
     442 C            7.3169    28.1698    12.9445 opls_135      1 RES       -0.180000
     443 C            7.3672    28.6263    11.4861 opls_157      1 RES        0.145000
     444 O            8.2844    27.9630    10.6453 opls_154      1 RES       -0.683000
     445 H            8.2161    27.0343    10.8063 opls_155      1 RES        0.418000
     446 H            7.5514    29.6994    11.5378 opls_140      1 RES        0.060000
     447 H            6.4201    28.5317    10.9548 opls_140      1 RES        0.060000
     448 H            6.7039    27.2708    12.8807 opls_140      1 RES        0.060000
     449 H            6.7825    28.8936    13.5598 opls_140      1 RES        0.060000
     450 H            8.2676    27.9806    13.4430 opls_140      1 RES        0.060000
     451 C           21.8092    27.5896    29.7883 opls_135      1 RES       -0.180000
     452 C           21.9110    27.3110    28.2884 opls_157      1 RES        0.145000
     453 O           20.7476    26.8314    27.6522 opls_154      1 RES       -0.683000
     454 H           20.0137    27.3480    27.9479 opls_155      1 RES        0.418000
     455 H           22.7516    26.6241    28.1906 opls_140      1 RES        0.060000
     456 H           22.1893    28.1786    27.6901 opls_140      1 RES        0.060000
     457 H           21.3222    28.5646    29.8064 opls_140      1 RES        0.060000
     458 H           22.7991    27.7044    30.2301 opls_140      1 RES        0.060000
     459 H           21.2799    26.8580    30.3988 opls_140      1 RES        0.060000
     460 C           26.7338    13.7541    28.8935 opls_135      1 RES       -0.180000
     461 C           27.6488    13.5657    27.6831 opls_157      1 RES        0.145000
     462 O           28.2467    14.7275    27.1533 opls_154      1 RES       -0.683000
     463 H           28.5796    15.2436    27.8716 opls_155      1 RES        0.418000
     464 H           27.0344    13.0431    26.9500 opls_140      1 RES        0.060000
     465 H           28.4950    12.9021    27.8610 opls_140      1 RES        0.060000
     466 H           27.4507    13.8333    29.7108 opls_140      1 RES        0.060000
     467 H           26.1298    12.8634    29.0662 opls_140      1 RES        0.060000
     468 H           26.0439    14.5978    28.8732 opls_140      1 RES        0.060000
     469 C           14.5104    33.4074    28.5722 opls_135      1 RES       -0.180000
     470 C           14.3651    33.4126    30.0942 opls_157      1 RES        0.145000
     471 O           13.2266    32.7719    30.6247 opls_154      1 RES       -0.683000
     472 H           13.1194    31.9438    30.1823 opls_155      1 RES        0.418000
     473 H           14.4183    34.4648    30.3740 opls_140      1 RES        0.060000
     474 H           15.1928    32.9414    30.6243 opls_140      1 RES        0.060000
     475 H           14.9076    32.4098    28.3847 opls_140      1 RES        0.060000
     476 H           15.2610    34.1297    28.2512 opls_140      1 RES        0.060000
     477 H           13.6154    33.6072    27.9830 opls_140      1 RES        0.060000
     478 C            2.7429    27.3202    27.5217 opls_135      1 RES       -0.180000
     479 C            2.7805    27.5816    26.0157 opls_157      1 RES        0.145000
     480 O            2.6552    28.9237    25.6018 opls_154      1 RES       -0.683000
     481 H            3.2137    29.4557    26.1478 opls_155      1 RES        0.418000
     482 H            1.9974    26.9448    25.6043 opls_140      1 RES        0.060000
     483 H            3.6959    27.2486    25.5266 opls_140      1 RES        0.060000
     484 H            3.7596    27.5731    27.8223 opls_140      1 RES        0.060000
     485 H            2.5889    26.2611    27.7283 opls_140      1 RES        0.060000
     486 H            1.9985    27.8617    28.1055 opls_140      1 RES        0.060000
     487 C            8.6874     5.9049    20.4242 opls_135      1 RES       -0.180000
     488 C            9.0149     6.1934    18.9588 opls_157      1 RES        0.145000
     489 O            9.4283     5.0975    18.1738 opls_154      1 RES       -0.683000
     490 H            8.8525     4.3701    18.3537 opls_155      1 RES        0.418000
     491 H            9.7625     6.9859    18.9929 opls_140      1 RES        0.060000
     492 H            8.1867     6.6162    18.3901 opls_140      1 RES        0.060000
     493 H            7.6801     5.4941    20.3558 opls_140      1 RES        0.060000
     494 H            8.6309     6.8294    20.9988 opls_140      1 RES        0.060000
     495 H            9.3618     5.2426    20.9671 opls_140      1 RES        0.060000
     496 C           14.8327     3.9674    17.2400 opls_135      1 RES       -0.180000
     497 C           14.9973     2.4679    16.9907 opls_157      1 RES        0.145000
     498 O           14.6286     1.9929    15.7153 opls_154      1 RES       -0.683000
     499 H           14.9828     2.5813    15.0661 opls_155      1 RES        0.418000
     500 H           14.4326     1.9903    17.7914 opls_140      1 RES        0.060000
     501 H           16.0171     2.1032    17.1134 opls_140      1 RES        0.060000
     502 H           15.7225     4.3768    16.7617 opls_140      1 RES        0.060000
     503 H           14.8940     4.1932    18.3046 opls_140      1 RES        0.060000
     504 H           13.9202     4.4386    16.8748 opls_140      1 RES        0.060000
     505 C           12.7943    15.4075    20.6024 opls_135      1 RES       -0.180000
     506 C           13.2365    14.0147    21.0525 opls_157      1 RES        0.145000
     507 O           13.7661    13.9077    22.3549 opls_154      1 RES       -0.683000
     508 H           13.2099    14.3963    22.9422 opls_155      1 RES        0.418000
     509 H           13.9420    13.6877    20.2886 opls_140      1 RES        0.060000
     510 H           12.4436    13.2670    21.0377 opls_140      1 RES        0.060000
     511 H           11.8163    15.4996    21.0749 opls_140      1 RES        0.060000
     512 H           12.6460    15.4379    19.5230 opls_140      1 RES        0.060000
     513 H           13.4472    16.2445    20.8498 opls_140      1 RES        0.060000
     514 C            9.2724    30.1675     5.1306 opls_135      1 RES       -0.180000
     515 C            9.0892    31.1563     3.9789 opls_157      1 RES        0.145000
     516 O            8.5128    30.6514     2.7953 opls_154      1 RES       -0.683000
     517 H            7.7685    30.1192     3.0317 opls_155      1 RES        0.418000
     518 H           10.0819    31.5745     3.8122 opls_140      1 RES        0.060000
     519 H            8.4626    32.0145     4.2214 opls_140      1 RES        0.060000
     520 H            8.2713    30.1301     5.5601 opls_140      1 RES        0.060000
     521 H            9.9439    30.5729     5.8874 opls_140      1 RES        0.060000
     522 H            9.6472    29.1743     4.8831 opls_140      1 RES        0.060000
     523 C           15.0323    21.0319    26.5956 opls_135      1 RES       -0.180000
     524 C           16.2644    20.3720    27.2155 opls_157      1 RES        0.145000
     525 O           17.3255    20.0620    26.3402 opls_154      1 RES       -0.683000
     526 H           17.4705    20.8054    25.7752 opls_155      1 RES        0.418000
     527 H           15.8782    19.4915    27.7290 opls_140      1 RES        0.060000
     528 H           16.7428    20.9626    27.9967 opls_140      1 RES        0.060000
     529 H           15.3489    22.0715    26.5112 opls_140      1 RES        0.060000
     530 H           14.1862    20.9969    27.2819 opls_140      1 RES        0.060000
     531 H           14.6770    20.6354    25.6444 opls_140      1 RES        0.060000
     532 C            4.6312     3.0530    33.5253 opls_135      1 RES       -0.180000
     533 C            3.8692     4.3783    33.4976 opls_157      1 RES        0.145000
     534 O            2.5253     4.3282    33.0737 opls_154      1 RES       -0.683000
     535 H            2.1067     3.5968    33.5012 opls_155      1 RES        0.418000
     536 H            4.4773     5.0346    32.8751 opls_140      1 RES        0.060000
     537 H            3.8134     4.8825    34.4624 opls_140      1 RES        0.060000
     538 H            4.2874     2.6121    34.4609 opls_140      1 RES        0.060000
     539 H            5.7042     3.2238    33.6129 opls_140      1 RES        0.060000
     540 H            4.4923     2.3778    32.6810 opls_140      1 RES        0.060000
     541 C            9.2960    20.3603    33.4559 opls_135      1 RES       -0.180000
     542 C           10.7704    20.2528    33.0658 opls_157      1 RES        0.145000
     543 O           11.6301    21.2587    33.5527 opls_154      1 RES       -0.683000
     544 H           11.4330    21.4006    34.4660 opls_155      1 RES        0.418000
     545 H           10.7659    20.2009    31.9771 opls_140      1 RES        0.060000
     546 H           11.2519    19.3290    33.3866 opls_140      1 RES        0.060000
     547 H            9.2981    19.9556    34.4680 opls_140      1 RES        0.060000
     548 H            8.6819    19.7056    32.8375 opls_140      1 RES        0.060000
     549 H            8.8373    21.3481    33.4127 opls_140      1 RES        0.060000
     550 C           33.6480    30.3501    21.8951 opls_135      1 RES       -0.180000
     551 C           33.8574    29.6196    23.2219 opls_157      1 RES        0.145000
     552 O           34.4553    30.3572    24.2643 opls_154      1 RES       -0.683000
     553 H           34.0453    31.2079    24.2984 opls_155      1 RES        0.418000
     554 H           34.4301    28.7297    22.9608 opls_140      1 RES        0.060000
     555 H           32.9409    29.2387    23.6724 opls_140      1 RES        0.060000
     556 H           32.7427    30.9245    22.0918 opls_140      1 RES        0.060000
     557 H           33.4265    29.6448    21.0941 opls_140      1 RES        0.060000
     558 H           34.4614    30.9811    21.5370 opls_140      1 RES        0.060000
     559 C           26.9163    12.3308     6.6194 opls_135      1 RES       -0.180000
     560 C           25.7580    12.7922     5.7343 opls_157      1 RES        0.145000
     561 O           25.5367    12.0626     4.5482 opls_154      1 RES       -0.683000
     562 H           25.5845    11.1414     4.7536 opls_155      1 RES        0.418000
     563 H           25.9586    13.8463     5.5426 opls_140      1 RES        0.060000
     564 H           24.7858    12.7788     6.2268 opls_140      1 RES        0.060000
     565 H           26.4762    11.4852     7.1479 opls_140      1 RES        0.060000
     566 H           27.1666    13.0913     7.3591 opls_140      1 RES        0.060000
     567 H           27.8488    12.0612     6.1236 opls_140      1 RES        0.060000
     568 C           19.0831     3.7075    22.8173 opls_135      1 RES       -0.180000
     569 C           19.3466     2.6384    23.8782 opls_157      1 RES        0.145000
     570 O           19.6988     3.0952    25.1649 opls_154      1 RES       -0.683000
     571 H           19.1170     3.8024    25.3980 opls_155      1 RES        0.418000
     572 H           20.1117     1.9969    23.4410 opls_140      1 RES        0.060000
     573 H           18.5014     1.9761    24.0655 opls_140      1 RES        0.060000
     574 H           18.0652     4.0172    23.0541 opls_140      1 RES        0.060000
     575 H           19.0737     3.2700    21.8191 opls_140      1 RES        0.060000
     576 H           19.7684     4.5543    22.7787 opls_140      1 RES        0.060000
     577 C           33.1954     3.0622     9.5807 opls_135      1 RES       -0.180000
     578 C           33.3855     4.5772     9.5004 opls_157      1 RES        0.145000
     579 O           32.6515     5.2566     8.5066 opls_154      1 RES       -0.683000
     580 H           31.7642     4.9316     8.5192 opls_155      1 RES        0.418000
     581 H           34.4611     4.7160     9.3907 opls_140      1 RES        0.060000
     582 H           33.1280     5.1096    10.4160 opls_140      1 RES        0.060000
     583 H           32.2570     2.9793    10.1291 opls_140      1 RES        0.060000
     584 H           33.9765     2.6044    10.1876 opls_140      1 RES        0.060000
     585 H           33.1687     2.5103     8.6412 opls_140      1 RES        0.060000
     586 C           24.0224     3.1466    18.1034 opls_135      1 RES       -0.180000
     587 C           25.4215     2.6412    17.7502 opls_157      1 RES        0.145000
     588 O           25.5680     1.9998    16.5031 opls_154      1 RES       -0.683000
     589 H           25.1153     2.5126    15.8510 opls_155      1 RES        0.418000
     590 H           25.7025     1.9980    18.5841 opls_140      1 RES        0.060000
     591 H           26.1856     3.4183    17.7283 opls_140      1 RES        0.060000
     592 H           23.9706     4.0819    17.5460 opls_140      1 RES        0.060000
     593 H           23.9528     3.3876    19.1642 opls_140      1 RES        0.060000
     594 H           23.1814     2.4908    17.8782 opls_140      1 RES        0.060000
     595 C           20.9796    19.4187    26.7688 opls_135      1 RES       -0.180000
     596 C           21.6233    19.7144    25.4137 opls_157      1 RES        0.145000
     597 O           21.2065    18.9189    24.3267 opls_154      1 RES       -0.683000
     598 H           20.2643    18.8511    24.3530 opls_155      1 RES        0.418000
     599 H           22.6957    19.6421    25.5948 opls_140      1 RES        0.060000
     600 H           21.4689    20.7330    25.0579 opls_140      1 RES        0.060000
     601 H           20.0207    19.9297    26.6818 opls_140      1 RES        0.060000
     602 H           21.5375    19.8938    27.5757 opls_140      1 RES        0.060000
     603 H           20.8599    18.3720    27.0485 opls_140      1 RES        0.060000
     604 C           28.9040     5.7412     4.1908 opls_135      1 RES       -0.180000
     605 C           27.9728     5.1011     5.2208 opls_157      1 RES        0.145000
     606 O           28.3835     5.1575     6.5685 opls_154      1 RES       -0.683000
     607 H           28.6918     6.0326     6.7481 opls_155      1 RES        0.418000
     608 H           27.8340     4.0782     4.8709 opls_140      1 RES        0.060000
     609 H           26.9695     5.5266     5.2423 opls_140      1 RES        0.060000
     610 H           28.6573     6.7985     4.2868 opls_140      1 RES        0.060000
     611 H           28.6394     5.4285     3.1807 opls_140      1 RES        0.060000
     612 H           29.9732     5.5603     4.3017 opls_140      1 RES        0.060000
     613 C           12.9009     5.0031    33.2173 opls_135      1 RES       -0.180000
     614 C           12.3991     3.6301    33.6653 opls_157      1 RES        0.145000
     615 O           11.2398     3.6094    34.4676 opls_154      1 RES       -0.683000
     616 H           10.6064     4.1995    34.0885 opls_155      1 RES        0.418000
     617 H           13.2548     3.1700    34.1593 opls_140      1 RES        0.060000
     618 H           12.1539     2.9542    32.8460 opls_140      1 RES        0.060000
     619 H           12.2409     5.2243    32.3785 opls_140      1 RES        0.060000
     620 H           13.9183     4.9379    32.8315 opls_140      1 RES        0.060000
     621 H           12.9005     5.8026    33.9582 opls_140      1 RES        0.060000
     622 C           28.9916    26.3127    33.6162 opls_135      1 RES       -0.180000
     623 C           29.5337    25.7850    32.2875 opls_157      1 RES        0.145000
     624 O           29.1602    24.4743    31.9260 opls_154      1 RES       -0.683000
     625 H           28.2341    24.3753    32.0858 opls_155      1 RES        0.418000
     626 H           30.6147    25.9035    32.3627 opls_140      1 RES        0.060000
     627 H           29.2480    26.3798    31.4199 opls_140      1 RES        0.060000
     628 H           27.9778    26.6091    33.3470 opls_140      1 RES        0.060000
     629 H           29.5287    27.2091    33.9262 opls_140      1 RES        0.060000
     630 H           29.0050    25.6327    34.4680 opls_140      1 RES        0.060000
     631 C           19.1721     2.8041    13.0575 opls_135      1 RES       -0.180000
     632 C           19.8163     4.1120    12.5968 opls_157      1 RES        0.145000
     633 O           20.9276     4.0027    11.7359 opls_154      1 RES       -0.683000
     634 H           20.7259     3.3617    11.0714 opls_155      1 RES        0.418000
     635 H           20.0550     4.6430    13.5183 opls_140      1 RES        0.060000
     636 H           19.1416     4.7778    12.0586 opls_140      1 RES        0.060000
     637 H           18.5582     2.5373    12.1973 opls_140      1 RES        0.060000
     638 H           18.5044     2.9764    13.9017 opls_140      1 RES        0.060000
     639 H           19.8392     1.9931    13.3497 opls_140      1 RES        0.060000
     640 C            9.9029    21.1078     8.7163 opls_135      1 RES       -0.180000
     641 C           10.5645    21.9175     9.8318 opls_157      1 RES        0.145000
     642 O           10.4988    21.3769    11.1323 opls_154      1 RES       -0.683000
     643 H           10.7090    20.4569    11.0819 opls_155      1 RES        0.418000
     644 H           10.1053    22.9040     9.7679 opls_140      1 RES        0.060000
     645 H           11.6296    22.0961     9.6836 opls_140      1 RES        0.060000
     646 H           10.6576    20.3498     8.5066 opls_140      1 RES        0.060000
     647 H            9.7805    21.7124     7.8176 opls_140      1 RES        0.060000
     648 H            8.9292    20.6660     8.9281 opls_140      1 RES        0.060000
     649 C           29.9176    32.4671     4.0595 opls_135      1 RES       -0.180000
     650 C           28.6057    33.1750     4.3994 opls_157      1 RES        0.145000
     651 O           28.4121    33.5383     5.7479 opls_154      1 RES       -0.683000
     652 H           29.2108    33.9299     6.0670 opls_155      1 RES        0.418000
     653 H           27.8269    32.5060     4.0331 opls_140      1 RES        0.060000
     654 H           28.4479    34.1083     3.8589 opls_140      1 RES        0.060000
     655 H           30.6175    33.3006     4.0003 opls_140      1 RES        0.060000
     656 H           29.8658    32.0059     3.0732 opls_140      1 RES        0.060000
     657 H           30.2618    31.6936     4.7461 opls_140      1 RES        0.060000
     658 C            5.3507    10.6228    15.8570 opls_135      1 RES       -0.180000
     659 C            5.6148    11.7405    16.8665 opls_157      1 RES        0.145000
     660 O            6.1200    12.9525    16.3528 opls_154      1 RES       -0.683000
     661 H            5.6254    13.1757    15.5791 opls_155      1 RES        0.418000
     662 H            6.2784    11.2939    17.6069 opls_140      1 RES        0.060000
     663 H            4.7354    12.0501    17.4313 opls_140      1 RES        0.060000
     664 H            4.3892    10.9179    15.4369 opls_140      1 RES        0.060000
     665 H            5.2132     9.6671    16.3628 opls_140      1 RES        0.060000
     666 H            6.1009    10.4594    15.0833 opls_140      1 RES        0.060000
     667 C            2.9141    33.1062    10.2434 opls_135      1 RES       -0.180000
     668 C            2.9909    31.8111     9.4344 opls_157      1 RES        0.145000
     669 O            3.9431    31.7680     8.3954 opls_154      1 RES       -0.683000
     670 H            4.7555    32.1229     8.7229 opls_155      1 RES        0.418000
     671 H            1.9750    31.6486     9.0743 opls_140      1 RES        0.060000
     672 H            3.2209    30.9260    10.0276 opls_140      1 RES        0.060000
     673 H            3.7520    32.9949    10.9317 opls_140      1 RES        0.060000
     674 H            1.9997    33.1404    10.8358 opls_140      1 RES        0.060000
     675 H            2.9617    34.0450     9.6915 opls_140      1 RES        0.060000
     676 C            3.0518     7.1430    12.0707 opls_135      1 RES       -0.180000
     677 C            3.1367     5.6703    11.6684 opls_157      1 RES        0.145000
     678 O            3.1891     4.7286    12.7166 opls_154      1 RES       -0.683000
     679 H            2.5387     4.9649    13.3601 opls_155      1 RES        0.418000
     680 H            4.0057     5.6118    11.0131 opls_140      1 RES        0.060000
     681 H            2.3031     5.3248    11.0569 opls_140      1 RES        0.060000
     682 H            1.9934     7.2539    12.3068 opls_140      1 RES        0.060000
     683 H            3.2727     7.7907    11.2223 opls_140      1 RES        0.060000
     684 H            3.6893     7.4759    12.8897 opls_140      1 RES        0.060000
     685 C            9.3582    21.7206     3.0299 opls_135      1 RES       -0.180000
     686 C           10.5020    21.9674     4.0142 opls_157      1 RES        0.145000
     687 O           10.1442    22.1838     5.3608 opls_154      1 RES       -0.683000
     688 H            9.4963    21.5398     5.6025 opls_155      1 RES        0.418000
     689 H           11.0555    22.8058     3.5912 opls_140      1 RES        0.060000
     690 H           11.2269    21.1553     4.0705 opls_140      1 RES        0.060000
     691 H            9.1313    20.6688     3.2037 opls_140      1 RES        0.060000
     692 H            9.7031    21.8207     2.0008 opls_140      1 RES        0.060000
     693 H            8.4729    22.3496     3.1232 opls_140      1 RES        0.060000
     694 C           27.2539    26.3368    29.3433 opls_135      1 RES       -0.180000
     695 C           26.7874    26.8562    30.7036 opls_157      1 RES        0.145000
     696 O           25.4520    27.3007    30.7886 opls_154      1 RES       -0.683000
     697 H           24.9007    26.6677    30.3545 opls_155      1 RES        0.418000
     698 H           27.5027    27.6370    30.9621 opls_140      1 RES        0.060000
     699 H           26.8655    26.1284    31.5112 opls_140      1 RES        0.060000
     700 H           26.8508    25.3241    29.3358 opls_140      1 RES        0.060000
     701 H           28.3407    26.2621    29.3080 opls_140      1 RES        0.060000
     702 H           26.9528    26.9020    28.4613 opls_140      1 RES        0.060000
     703 C           18.7398    21.4415    21.5066 opls_135      1 RES       -0.180000
     704 C           19.4741    20.7671    22.6658 opls_157      1 RES        0.145000
     705 O           20.6408    21.4054    23.1345 opls_154      1 RES       -0.683000
     706 H           20.4611    22.3296    23.2149 opls_155      1 RES        0.418000
     707 H           19.6665    19.7519    22.3188 opls_140      1 RES        0.060000
     708 H           18.8718    20.6442    23.5660 opls_140      1 RES        0.060000
     709 H           18.1808    22.2259    22.0167 opls_140      1 RES        0.060000
     710 H           18.0191    20.7601    21.0545 opls_140      1 RES        0.060000
     711 H           19.3464    21.8370    20.6920 opls_140      1 RES        0.060000
     712 C           20.9956    30.5173     6.1431 opls_135      1 RES       -0.180000
     713 C           19.6830    30.5270     5.3589 opls_157      1 RES        0.145000
     714 O           18.9829    31.7499     5.3096 opls_154      1 RES       -0.683000
     715 H           19.6026    32.4391     5.1252 opls_155      1 RES        0.418000
     716 H           19.0903    29.7261     5.8009 opls_140      1 RES        0.060000
     717 H           19.7867    30.2503     4.3097 opls_140      1 RES        0.060000
     718 H           21.6909    30.9582     5.4288 opls_140      1 RES        0.060000
     719 H           21.3233    29.4964     6.3391 opls_140      1 RES        0.060000
     720 H           21.0106    31.0375     7.1009 opls_140      1 RES        0.060000
     721 C           25.5673    16.7091    33.5215 opls_135      1 RES       -0.180000
     722 C           24.0409    16.7061    33.4331 opls_157      1 RES        0.145000
     723 O           23.4622    17.5110    32.4304 opls_154      1 RES       -0.683000
     724 H           23.9427    17.3761    31.6280 opls_155      1 RES        0.418000
     725 H           23.7049    16.9816    34.4328 opls_140      1 RES        0.060000
     726 H           23.6051    15.7232    33.2539 opls_140      1 RES        0.060000
     727 H           25.8431    16.0208    32.7225 opls_140      1 RES        0.060000
     728 H           25.9026    16.2759    34.4638 opls_140      1 RES        0.060000
     729 H           26.0727    17.6700    33.4244 opls_140      1 RES        0.060000
     730 C           20.3377    19.5977     8.7597 opls_135      1 RES       -0.180000
     731 C           21.1813    18.7952     7.7687 opls_157      1 RES        0.145000
     732 O           20.7116    18.7332     6.4407 opls_154      1 RES       -0.683000
     733 H           20.4459    19.6017     6.1794 opls_155      1 RES        0.418000
     734 H           21.2776    17.8087     8.2221 opls_140      1 RES        0.060000
     735 H           22.2052    19.1530     7.6603 opls_140      1 RES        0.060000
     736 H           20.6398    20.6215     8.5391 opls_140      1 RES        0.060000
     737 H           20.6312    19.3784     9.7863 opls_140      1 RES        0.060000
     738 H           19.2559    19.4727     8.7127 opls_140      1 RES        0.060000
     739 C           33.8759     9.5554    12.9926 opls_135      1 RES       -0.180000
     740 C           32.3714     9.7647    13.1669 opls_157      1 RES        0.145000
     741 O           31.9648    10.5734    14.2480 opls_154      1 RES       -0.683000
     742 H           32.5139    11.3423    14.2659 opls_155      1 RES        0.418000
     743 H           31.9562     8.7583    13.2214 opls_140      1 RES        0.060000
     744 H           31.8808    10.2222    12.3078 opls_140      1 RES        0.060000
     745 H           34.1783    10.4780    12.4971 opls_140      1 RES        0.060000
     746 H           34.0767     8.7301    12.3095 opls_140      1 RES        0.060000
     747 H           34.4624     9.3642    13.8913 opls_140      1 RES        0.060000
     748 C            9.3431    17.4562    10.8960 opls_135      1 RES       -0.180000
     749 C            8.3609    17.2590    12.0511 opls_157      1 RES        0.145000
     750 O            7.8058    15.9714    12.1985 opls_154      1 RES       -0.683000
     751 H            8.5002    15.3369    12.1075 opls_155      1 RES        0.418000
     752 H            7.6002    18.0252    11.9018 opls_140      1 RES        0.060000
     753 H            8.7794    17.4703    13.0352 opls_140      1 RES        0.060000
     754 H           10.2629    17.0385    11.3053 opls_140      1 RES        0.060000
     755 H            9.5141    18.5162    10.7083 opls_140      1 RES        0.060000
     756 H            9.0839    17.0090     9.9364 opls_140      1 RES        0.060000
     757 C           18.7381    30.7651     8.8869 opls_135      1 RES       -0.180000
     758 C           17.9937    31.9189     8.2142 opls_157      1 RES        0.145000
     759 O           18.7769    33.0006     7.7619 opls_154      1 RES       -0.683000
     760 H           19.5323    32.6526     7.3134 opls_155      1 RES        0.418000
     761 H           17.2421    32.2253     8.9417 opls_140      1 RES        0.060000
     762 H           17.4246    31.6295     7.3308 opls_140      1 RES        0.060000
     763 H           19.1209    30.2106     8.0301 opls_140      1 RES        0.060000
     764 H           18.0452    30.1148     9.4209 opls_140      1 RES        0.060000
     765 H           19.5283    31.0224     9.5921 opls_140      1 RES        0.060000
     766 C           33.6532     3.7228    14.0373 opls_135      1 RES       -0.180000
     767 C           33.8702     2.8478    15.2722 opls_157      1 RES        0.145000
     768 O           34.4636     3.4667    16.3916 opls_154      1 RES       -0.683000
     769 H           34.0471     4.3048    16.5224 opls_155      1 RES        0.418000
     770 H           34.4494     1.9979    14.9113 opls_140      1 RES        0.060000
     771 H           32.9573     2.4108    15.6769 opls_140      1 RES        0.060000
     772 H           32.7437     4.2639    14.2985 opls_140      1 RES        0.060000
     773 H           33.4362     3.1114    13.1614 opls_140      1 RES        0.060000
     774 H           34.4612     4.3968    13.7529 opls_140      1 RES        0.060000
     775 C           15.5757    27.2119    15.0647 opls_135      1 RES       -0.180000
     776 C           15.8456    28.5687    14.4136 opls_157      1 RES        0.145000
     777 O           15.8751    29.6884    15.2702 opls_154      1 RES       -0.683000
     778 H           16.3862    29.4647    16.0329 opls_155      1 RES        0.418000
     779 H           15.0862    28.6593    13.6370 opls_140      1 RES        0.060000
     780 H           16.7956    28.6291    13.8826 opls_140      1 RES        0.060000
     781 H           16.5546    26.9547    15.4694 opls_140      1 RES        0.060000
     782 H           15.3199    26.4647    14.3134 opls_140      1 RES        0.060000
     783 H           14.7958    27.1674    15.8248 opls_140      1 RES        0.060000
     784 C            2.9770    14.7781     9.2754 opls_135      1 RES       -0.180000
     785 C            2.8828    13.5263     8.4025 opls_157      1 RES        0.145000
     786 O            4.0166    13.2068     7.6275 opls_154      1 RES       -0.683000
     787 H            4.7834    13.2982     8.1723 opls_155      1 RES        0.418000
     788 H            1.9924    13.6800     7.7928 opls_140      1 RES        0.060000
     789 H            2.6860    12.6084     8.9564 opls_140      1 RES        0.060000
     790 H            3.5395    14.4143    10.1352 opls_140      1 RES        0.060000
     791 H            1.9910    15.0812     9.6273 opls_140      1 RES        0.060000
     792 H            3.4347    15.6633     8.8337 opls_140      1 RES        0.060000
     793 C           15.3854     7.6430    33.3233 opls_135      1 RES       -0.180000
     794 C           15.5198     9.0830    33.8197 opls_157      1 RES        0.145000
     795 O           16.7289     9.4224    34.4607 opls_154      1 RES       -0.683000
     796 H           17.4433     9.0715    33.9512 opls_155      1 RES        0.418000
     797 H           14.6518     9.2372    34.4606 opls_140      1 RES        0.060000
     798 H           15.4259     9.8363    33.0376 opls_140      1 RES        0.060000
     799 H           15.9455     7.6711    32.3887 opls_140      1 RES        0.060000
     800 H           14.3481     7.4105    33.0823 opls_140      1 RES        0.060000
     801 H           15.7355     6.8506    33.9849 opls_140      1 RES        0.060000
     802 C           21.9928    11.4631    33.3845 opls_135      1 RES       -0.180000
     803 C           20.5501    10.9672    33.2814 opls_157      1 RES        0.145000
     804 O           20.3412     9.5837    33.4557 opls_154      1 RES       -0.683000
     805 H           20.8443     9.2998    34.2036 opls_155      1 RES        0.418000
     806 H           20.2044    11.3208    32.3101 opls_140      1 RES        0.060000
     807 H           19.8687    11.4205    34.0014 opls_140      1 RES        0.060000
     808 H           22.1398    11.5135    34.4634 opls_140      1 RES        0.060000
     809 H           22.0850    12.4746    32.9889 opls_140      1 RES        0.060000
     810 H           22.7633    10.8671    32.8955 opls_140      1 RES        0.060000
     811 C           14.3584    13.9637    33.4320 opls_135      1 RES       -0.180000
     812 C           15.6866    13.2251    33.2648 opls_157      1 RES        0.145000
     813 O           16.1030    12.9604    31.9439 opls_154      1 RES       -0.683000
     814 H           15.9751    13.7433    31.4303 opls_155      1 RES        0.418000
     815 H           15.5744    12.3159    33.8554 opls_140      1 RES        0.060000
     816 H           16.5423    13.7383    33.7036 opls_140      1 RES        0.060000
     817 H           14.6486    14.9984    33.2499 opls_140      1 RES        0.060000
     818 H           14.0022    13.8944    34.4599 opls_140      1 RES        0.060000
     819 H           13.5298    13.6545    32.7949 opls_140      1 RES        0.060000
     820 C           15.2931    32.5189    33.6513 opls_135      1 RES       -0.180000
     821 C           15.0490    34.0253    33.5566 opls_157      1 RES        0.145000
     822 O           14.1540    34.4611    32.5579 opls_154      1 RES       -0.683000
     823 H           13.3942    33.8994    32.5752 opls_155      1 RES        0.418000
     824 H           16.0420    34.4604    33.4435 opls_140      1 RES        0.060000
     825 H           14.6512    34.4723    34.4677 opls_140      1 RES        0.060000
     826 H           14.4157    32.1802    34.2021 opls_140      1 RES        0.060000
     827 H           16.1711    32.3054    34.2609 opls_140      1 RES        0.060000
     828 H           15.4238    31.9731    32.7169 opls_140      1 RES        0.060000
     829 C           11.4695    12.7527    12.6915 opls_135      1 RES       -0.180000
     830 C           11.5046    13.8341    11.6111 opls_157      1 RES        0.145000
     831 O           11.1507    13.4374    10.3052 opls_154      1 RES       -0.683000
     832 H           10.3730    12.9033    10.3581 opls_155      1 RES        0.418000
     833 H           12.5133    14.2440    11.6622 opls_140      1 RES        0.060000
     834 H           10.8490    14.6827    11.8061 opls_140      1 RES        0.060000
     835 H           10.4067    12.7015    12.9280 opls_140      1 RES        0.060000
     836 H           11.9940    13.0824    13.5883 opls_140      1 RES        0.060000
     837 H           11.8776    11.7751    12.4350 opls_140      1 RES        0.060000
     838 C           33.6565    11.7187    19.9173 opls_135      1 RES       -0.180000
     839 C           33.8754    10.4379    20.7231 opls_157      1 RES        0.145000
     840 O           34.4616    10.5828    21.9973 opls_154      1 RES       -0.683000
     841 H           34.0394    11.3046    22.4375 opls_155      1 RES        0.418000
     842 H           34.4611     9.7943    20.0667 opls_140      1 RES        0.060000
     843 H           32.9641     9.8748    20.9245 opls_140      1 RES        0.060000
     844 H           32.7429    12.1139    20.3614 opls_140      1 RES        0.060000
     845 H           33.4459    11.4892    18.8727 opls_140      1 RES        0.060000
     846 H           34.4611    12.4541    19.9174 opls_140      1 RES        0.060000
     847 C           21.7747     6.8935    25.1874 opls_135      1 RES       -0.180000
     848 C           21.6029     5.6247    24.3516 opls_157      1 RES        0.145000
     849 O           21.6626     5.7751    22.9509 opls_154      1 RES       -0.683000
     850 H           22.3958     6.3342    22.7438 opls_155      1 RES        0.418000
     851 H           20.6557     5.2000    24.6841 opls_140      1 RES        0.060000
     852 H           22.3423     4.8505    24.5564 opls_140      1 RES        0.060000
     853 H           22.8569     7.0230    25.1849 opls_140      1 RES        0.060000
     854 H           21.4624     6.7249    26.2180 opls_140      1 RES        0.060000
     855 H           21.2559     7.7903    24.8487 opls_140      1 RES        0.060000
     856 C           14.5037    11.5227    22.4814 opls_135      1 RES       -0.180000
     857 C           13.0026    11.3328    22.7019 opls_157      1 RES        0.145000
     858 O           12.6196    10.4071    23.6941 opls_154      1 RES       -0.683000
     859 H           13.1544    10.5543    24.4592 opls_155      1 RES        0.418000
     860 H           12.6086    11.0752    21.7188 opls_140      1 RES        0.060000
     861 H           12.4733    12.2427    22.9844 opls_140      1 RES        0.060000
     862 H           14.7708    12.1932    23.2983 opls_140      1 RES        0.060000
     863 H           14.6955    12.0467    21.5451 opls_140      1 RES        0.060000
     864 H           15.1252    10.6274    22.4690 opls_140      1 RES        0.060000
     865 C           20.0948     7.8855     2.6091 opls_135      1 RES       -0.180000
     866 C           20.1325     6.6218     3.4690 opls_157      1 RES        0.145000
     867 O           19.6730     5.4319     2.8678 opls_154      1 RES       -0.683000
     868 H           20.0426     5.3764     1.9999 opls_155      1 RES        0.418000
     869 H           19.5683     6.8795     4.3653 opls_140      1 RES        0.060000
     870 H           21.1257     6.3569     3.8316 opls_140      1 RES        0.060000
     871 H           20.9916     7.7734     1.9999 opls_140      1 RES        0.060000
     872 H           20.2197     8.7772     3.2236 opls_140      1 RES        0.060000
     873 H           19.2061     8.0504     2.0000 opls_140      1 RES        0.060000
     874 C           14.9256    19.9181    10.7120 opls_135      1 RES       -0.180000
     875 C           14.5774    21.4027    10.8239 opls_157      1 RES        0.145000
     876 O           15.4969    22.2194    11.5134 opls_154      1 RES       -0.683000
     877 H           16.3675    21.9998    11.2187 opls_155      1 RES        0.418000
     878 H           13.5852    21.4213    11.2747 opls_140      1 RES        0.060000
     879 H           14.4572    21.9075     9.8653 opls_140      1 RES        0.060000
     880 H           15.6414    19.9133     9.8900 opls_140      1 RES        0.060000
     881 H           14.0572    19.3379    10.3998 opls_140      1 RES        0.060000
     882 H           15.3226    19.4285    11.6012 opls_140      1 RES        0.060000
     883 C           30.5687    13.1204    12.9620 opls_135      1 RES       -0.180000
     884 C           29.8359    13.1734    11.6211 opls_157      1 RES        0.145000
     885 O           29.3393    14.4304    11.2191 opls_154      1 RES       -0.683000
     886 H           30.0113    15.0771    11.3712 opls_155      1 RES        0.418000
     887 H           29.0496    12.4232    11.7052 opls_140      1 RES        0.060000
     888 H           30.4367    12.8528    10.7700 opls_140      1 RES        0.060000
     889 H           31.5570    13.4957    12.6965 opls_140      1 RES        0.060000
     890 H           30.6841    12.0910    13.3011 opls_140      1 RES        0.060000
     891 H           30.1322    13.6740    13.7934 opls_140      1 RES        0.060000
     892 C           32.8232    19.3669    30.4469 opls_135      1 RES       -0.180000
     893 C           32.2544    20.4108    29.4854 opls_157      1 RES        0.145000
     894 O           31.2781    21.2857    30.0046 opls_154      1 RES       -0.683000
     895 H           31.5719    21.5899    30.8497 opls_155      1 RES        0.418000
     896 H           31.8868    19.8344    28.6365 opls_140      1 RES        0.060000
     897 H           33.0006    21.0837    29.0630 opls_140      1 RES        0.060000
     898 H           33.5538    19.9489    31.0087 opls_140      1 RES        0.060000
     899 H           33.3630    18.5916    29.9033 opls_140      1 RES        0.060000
     900 H           32.1196    18.8538    31.1025 opls_140      1 RES        0.060000
     901 C           16.9333    26.3240    29.1287 opls_135      1 RES       -0.180000
     902 C           18.2202    25.5952    28.7405 opls_157      1 RES        0.145000
     903 O           19.3759    25.9092    29.4847 opls_154      1 RES       -0.683000
     904 H           19.1444    25.9211    30.4009 opls_155      1 RES        0.418000
     905 H           18.3430    25.7975    27.6766 opls_140      1 RES        0.060000
     906 H           18.1583    24.5093    28.8121 opls_140      1 RES        0.060000
     907 H           16.6034    25.7559    29.9985 opls_140      1 RES        0.060000
     908 H           16.1756    26.2140    28.3529 opls_140      1 RES        0.060000
     909 H           17.0066    27.3904    29.3420 opls_140      1 RES        0.060000
     910 C            2.9874    31.7785    14.8941 opls_135      1 RES       -0.180000
     911 C            3.3817    30.3067    14.7670 opls_157      1 RES        0.145000
     912 O            2.4007    29.4287    14.2624 opls_154      1 RES       -0.683000
     913 H            1.9973    29.8354    13.5108 opls_155      1 RES        0.418000
     914 H            3.7200    30.0235    15.7638 opls_140      1 RES        0.060000
     915 H            4.2407    30.1279    14.1202 opls_140      1 RES        0.060000
     916 H            3.1054    32.1351    13.8709 opls_140      1 RES        0.060000
     917 H            3.6991    32.3188    15.5185 opls_140      1 RES        0.060000
     918 H            1.9965    31.9990    15.2910 opls_140      1 RES        0.060000
     919 C           30.8340    24.0323    18.2807 opls_135      1 RES       -0.180000
     920 C           31.4672    25.4106    18.0882 opls_157      1 RES        0.145000
     921 O           30.9149    26.2269    17.0799 opls_154      1 RES       -0.683000
     922 H           29.9733    26.1889    17.1504 opls_155      1 RES        0.418000
     923 H           32.5261    25.2089    17.9262 opls_140      1 RES        0.060000
     924 H           31.4369    26.0446    18.9743 opls_140      1 RES        0.060000
     925 H           29.9484    24.2688    18.8706 opls_140      1 RES        0.060000
     926 H           31.4751    23.3915    18.8862 opls_140      1 RES        0.060000
     927 H           30.5867    23.4650    17.3834 opls_140      1 RES        0.060000
     928 C           20.7783     8.9327    12.8218 opls_135      1 RES       -0.180000
     929 C           20.8816     7.4435    13.1526 opls_157      1 RES        0.145000
     930 O           22.1795     6.8958    13.2131 opls_154      1 RES       -0.683000
     931 H           22.7284     7.4877    13.7045 opls_155      1 RES        0.418000
     932 H           20.2565     6.9503    12.4082 opls_140      1 RES        0.060000
     933 H           20.4434     7.1668    14.1116 opls_140      1 RES        0.060000
     934 H           20.9962     9.3954    13.7843 opls_140      1 RES        0.060000
     935 H           19.7576     9.1998    12.5481 opls_140      1 RES        0.060000
     936 H           21.4224     9.3156    12.0302 opls_140      1 RES        0.060000
     937 C           25.9669    28.9485    22.9661 opls_135      1 RES       -0.180000
     938 C           24.9017    29.6830    23.7809 opls_157      1 RES        0.145000
     939 O           23.9180    28.8868    24.4025 opls_154      1 RES       -0.683000
     940 H           24.3474    28.1521    24.8134 opls_155      1 RES        0.418000
     941 H           24.4736    30.4074    23.0881 opls_140      1 RES        0.060000
     942 H           25.2993    30.2823    24.6000 opls_140      1 RES        0.060000
     943 H           26.6489    28.6021    23.7426 opls_140      1 RES        0.060000
     944 H           26.5145    29.6421    22.3281 opls_140      1 RES        0.060000
     945 H           25.6326    28.1338    22.3239 opls_140      1 RES        0.060000
     946 C            8.3459    20.6784    12.6570 opls_135      1 RES       -0.180000
     947 C            7.6265    22.0224    12.5386 opls_157      1 RES        0.145000
     948 O            8.4378    23.1632    12.3702 opls_154      1 RES       -0.683000
     949 H            9.0960    22.9658    11.7215 opls_155      1 RES        0.418000
     950 H            7.0040    22.0830    13.4313 opls_140      1 RES        0.060000
     951 H            6.9258    22.0829    11.7059 opls_140      1 RES        0.060000
     952 H            8.5656    20.4452    11.6152 opls_140      1 RES        0.060000
     953 H            7.6723    19.9093    13.0349 opls_140      1 RES        0.060000
     954 H            9.2395    20.6419    13.2802 opls_140      1 RES        0.060000
     955 C           10.7048    18.2908     7.2614 opls_135      1 RES       -0.180000
     956 C            9.7335    18.9805     6.3030 opls_157      1 RES        0.145000
     957 O           10.2711    19.4574     5.0898 opls_154      1 RES       -0.683000
     958 H           10.8315    18.7869     4.7301 opls_155      1 RES        0.418000
     959 H            9.2761    19.7732     6.8951 opls_140      1 RES        0.060000
     960 H            8.8999    18.3550     5.9839 opls_140      1 RES        0.060000
     961 H           10.7799    17.2925     6.8302 opls_140      1 RES        0.060000
     962 H           10.2661    18.1917     8.2543 opls_140      1 RES        0.060000
     963 H           11.6837    18.7502     7.3990 opls_140      1 RES        0.060000
     964 C           14.3675    24.6909     4.4777 opls_135      1 RES       -0.180000
     965 C           15.4439    23.8365     3.8075 opls_157      1 RES        0.145000
     966 O           15.1869    23.4138     2.4871 opls_154      1 RES       -0.683000
     967 H           14.8534    24.1512     1.9993 opls_155      1 RES        0.418000
     968 H           15.5981    23.0002     4.4892 opls_140      1 RES        0.060000
     969 H           16.4181    24.3200     3.7350 opls_140      1 RES        0.060000
     970 H           14.5649    25.6770     4.0572 opls_140      1 RES        0.060000
     971 H           14.5322    24.7494     5.5536 opls_140      1 RES        0.060000
     972 H           13.3296    24.3887     4.3385 opls_140      1 RES        0.060000
     973 C           17.1534    32.3306    23.9444 opls_135      1 RES       -0.180000
     974 C           17.6646    33.7444    23.6659 opls_157      1 RES        0.145000
     975 O           18.1680    34.4653    24.7682 opls_154      1 RES       -0.683000
     976 H           18.7305    33.8916    25.2657 opls_155      1 RES        0.418000
     977 H           16.8285    34.2515    23.1843 opls_140      1 RES        0.060000
     978 H           18.4752    33.7919    22.9388 opls_140      1 RES        0.060000
     979 H           18.0791    31.7560    23.9769 opls_140      1 RES        0.060000
     980 H           16.5613    31.9599    23.1077 opls_140      1 RES        0.060000
     981 H           16.5506    32.1835    24.8406 opls_140      1 RES        0.060000
     982 C           20.5603    10.5600    25.5449 opls_135      1 RES       -0.180000
     983 C           19.4888     9.6658    26.1695 opls_157      1 RES        0.145000
     984 O           18.8042    10.1834    27.2883 opls_154      1 RES       -0.683000
     985 H           18.5664    11.0788    27.1021 opls_155      1 RES        0.418000
     986 H           20.0035     8.7313    26.3928 opls_140      1 RES        0.060000
     987 H           18.6864     9.3856    25.4871 opls_140      1 RES        0.060000
     988 H           19.9631    11.2436    24.9415 opls_140      1 RES        0.060000
     989 H           21.1967     9.9892    24.8688 opls_140      1 RES        0.060000
     990 H           21.2270    11.0917    26.2239 opls_140      1 RES        0.060000
     991 C           31.3897    24.9931     6.8092 opls_135      1 RES       -0.180000
     992 C           32.0185    24.8834     8.1986 opls_157      1 RES        0.145000
     993 O           31.2661    24.2118     9.1840 opls_154      1 RES       -0.683000
     994 H           30.9176    23.4205     8.8027 opls_155      1 RES        0.418000
     995 H           32.2493    25.9109     8.4802 opls_140      1 RES        0.060000
     996 H           32.9787    24.3677     8.2157 opls_140      1 RES        0.060000
     997 H           31.5977    24.0100     6.3869 opls_140      1 RES        0.060000
     998 H           31.9131    25.7327     6.2033 opls_140      1 RES        0.060000
     999 H           30.3300    25.2432     6.7575 opls_140      1 RES        0.060000
    1000 C           13.8350     4.4035     8.7660 opls_135      1 RES       -0.180000
    1001 C           13.4238     2.9571     8.4889 opls_157      1 RES        0.145000
    1002 O           14.3833     1.9613     8.7641 opls_154      1 RES       -0.683000
    1003 H           14.7710     2.1476     9.6055 opls_155      1 RES        0.418000
    1004 H           13.1086     2.9537     7.4455 opls_140      1 RES        0.060000
    1005 H           12.5469     2.6268     9.0457 opls_140      1 RES        0.060000
    1006 H           13.6941     4.4777     9.8443 opls_140      1 RES        0.060000
    1007 H           13.1448     5.1011     8.2918 opls_140      1 RES        0.060000
    1008 H           14.8379     4.7055     8.4642 opls_140      1 RES        0.060000
    1009 C           30.1940    24.4646    14.4510 opls_135      1 RES       -0.180000
    1010 C           31.3370    25.4516    14.2120 opls_157      1 RES        0.145000
    1011 O           32.1646    25.7428    15.3159 opls_154      1 RES       -0.683000
    1012 H           32.3774    24.9305    15.7493 opls_155      1 RES        0.418000
    1013 H           30.8547    26.3416    13.8078 opls_140      1 RES        0.060000
    1014 H           32.0416    25.1418    13.4401 opls_140      1 RES        0.060000
    1015 H           30.7074    23.5045    14.3987 opls_140      1 RES        0.060000
    1016 H           29.4727    24.5007    13.6347 opls_140      1 RES        0.060000
    1017 H           29.6240    24.5724    15.3739 opls_140      1 RES        0.060000
    1018 C            2.7191    27.6398    32.7536 opls_135      1 RES       -0.180000
    1019 C            3.5547    26.5917    32.0180 opls_157      1 RES        0.145000
    1020 O            2.8779    25.4354    31.5786 opls_154      1 RES       -0.683000
    1021 H            2.0657    25.7023    31.1760 opls_155      1 RES        0.418000
    1022 H            4.3727    26.3607    32.7003 opls_140      1 RES        0.060000
    1023 H            4.0412    26.9607    31.1150 opls_140      1 RES        0.060000
    1024 H            2.2322    28.1620    31.9300 opls_140      1 RES        0.060000
    1025 H            3.3598    28.3556    33.2686 opls_140      1 RES        0.060000
    1026 H            2.0005    27.2804    33.4902 opls_140      1 RES        0.060000
    1027 C           25.3247    33.4016    33.6192 opls_135      1 RES       -0.180000
    1028 C           26.8417    33.3703    33.8078 opls_157      1 RES        0.145000
    1029 O           27.3764    32.2405    34.4604 opls_154      1 RES       -0.683000
    1030 H           26.9690    31.4686    34.0982 opls_155      1 RES        0.418000
    1031 H           27.0756    34.2997    34.3270 opls_140      1 RES        0.060000
    1032 H           27.4092    33.4201    32.8785 opls_140      1 RES        0.060000
    1033 H           25.1900    32.7582    32.7498 opls_140      1 RES        0.060000
    1034 H           24.9877    34.4020    33.3478 opls_140      1 RES        0.060000
    1035 H           24.7089    33.0842    34.4607 opls_140      1 RES        0.060000
    1036 C            6.2174     3.6883    29.6791 opls_135      1 RES       -0.180000
    1037 C            7.2211     2.9034    28.8339 opls_157      1 RES        0.145000
    1038 O            7.7848     3.5769    27.7308 opls_154      1 RES       -0.683000
    1039 H            8.0380     4.4434    28.0102 opls_155      1 RES        0.418000
    1040 H            6.6888     1.9985    28.5409 opls_140      1 RES        0.060000
    1041 H            8.0906     2.5483    29.3870 opls_140      1 RES        0.060000
    1042 H            6.8718     4.2953    30.3046 opls_140      1 RES        0.060000
    1043 H            5.6560     3.0218    30.3339 opls_140      1 RES        0.060000
    1044 H            5.4825     4.2945    29.1493 opls_140      1 RES        0.060000
    1045 C           18.3115    24.7581    20.3066 opls_135      1 RES       -0.180000
    1046 C           19.3684    24.9984    21.3851 opls_157      1 RES        0.145000
    1047 O           18.9186    25.0141    22.7213 opls_154      1 RES       -0.683000
    1048 H           18.3318    24.2838    22.8452 opls_155      1 RES        0.418000
    1049 H           19.8501    25.9329    21.0976 opls_140      1 RES        0.060000
    1050 H           20.1723    24.2624    21.3955 opls_140      1 RES        0.060000
    1051 H           18.1901    23.6755    20.3439 opls_140      1 RES        0.060000
    1052 H           18.6977    25.0154    19.3203 opls_140      1 RES        0.060000
    1053 H           17.3600    25.2790    20.4130 opls_140      1 RES        0.060000
    1054 C           29.2718    24.1433    10.7454 opls_135      1 RES       -0.180000
    1055 C           27.9846    24.4487    11.5120 opls_157      1 RES        0.145000
    1056 O           28.0113    25.5605    12.3787 opls_154      1 RES       -0.683000
    1057 H           28.4269    26.2788    11.9266 opls_155      1 RES        0.418000
    1058 H           27.7455    23.5213    12.0326 opls_140      1 RES        0.060000
    1059 H           27.1204    24.6419    10.8764 opls_140      1 RES        0.060000
    1060 H           29.2251    24.8613     9.9267 opls_140      1 RES        0.060000
    1061 H           29.2382    23.1433    10.3128 opls_140      1 RES        0.060000
    1062 H           30.2104    24.2123    11.2952 opls_140      1 RES        0.060000
    1063 C            2.8962    18.1892    21.3719 opls_135      1 RES       -0.180000
    1064 C            3.1241    18.6522    22.8112 opls_157      1 RES        0.145000
    1065 O            4.0502    17.9136    23.5758 opls_154      1 RES       -0.683000
    1066 H            4.8161    17.7581    23.0446 opls_155      1 RES        0.418000
    1067 H            2.1304    18.6637    23.2591 opls_140      1 RES        0.060000
    1068 H            3.4813    19.6782    22.8998 opls_140      1 RES        0.060000
    1069 H            3.7567    18.6159    20.8565 opls_140      1 RES        0.060000
    1070 H            1.9988    18.6457    20.9545 opls_140      1 RES        0.060000
    1071 H            2.8081    17.1166    21.1989 opls_140      1 RES        0.060000
    1072 C           11.6504    24.0229    14.6993 opls_135      1 RES       -0.180000
    1073 C           10.5950    23.7377    13.6304 opls_157      1 RES        0.145000
    1074 O           10.9721    23.9640    12.2907 opls_154      1 RES       -0.683000
    1075 H           11.8325    23.5962    12.1588 opls_155      1 RES        0.418000
    1076 H            9.7326    24.3351    13.9262 opls_140      1 RES        0.060000
    1077 H           10.2323    22.7098    13.6228 opls_140      1 RES        0.060000
    1078 H           12.2670    23.1251    14.6558 opls_140      1 RES        0.060000
    1079 H           11.1978    24.0676    15.6899 opls_140      1 RES        0.060000
    1080 H           12.2435    24.9306    14.5878 opls_140      1 RES        0.060000
    1081 C           22.0712     4.7768    15.7295 opls_135      1 RES       -0.180000
    1082 C           22.2229     3.5347    14.8508 opls_157      1 RES        0.145000
    1083 O           21.3892     2.4385    15.1531 opls_154      1 RES       -0.683000
    1084 H           20.5134     2.7629    15.2969 opls_155      1 RES        0.418000
    1085 H           23.2813     3.2810    14.9100 opls_140      1 RES        0.060000
    1086 H           22.0377     3.7110    13.7912 opls_140      1 RES        0.060000
    1087 H           21.1875     5.2512    15.3027 opls_140      1 RES        0.060000
    1088 H           22.9126     5.4557    15.5909 opls_140      1 RES        0.060000
    1089 H           21.9717     4.6211    16.8037 opls_140      1 RES        0.060000
    1090 C           27.1163     4.0521    11.6212 opls_135      1 RES       -0.180000
    1091 C           26.8585     4.0446    13.1283 opls_157      1 RES        0.145000
    1092 O           25.5348     4.2919    13.5464 opls_154      1 RES       -0.683000
    1093 H           24.9526     3.7812    13.0049 opls_155      1 RES        0.418000
    1094 H           27.5648     4.7690    13.5338 opls_140      1 RES        0.060000
    1095 H           27.1098     3.1051    13.6205 opls_140      1 RES        0.060000
    1096 H           26.7718     3.0609    11.3263 opls_140      1 RES        0.060000
    1097 H           28.1842     4.1092    11.4101 opls_140      1 RES        0.060000
    1098 H           26.6417     4.8396    11.0359 opls_140      1 RES        0.060000
    1099 C           22.1991     9.4208    15.8801 opls_135      1 RES       -0.180000
    1100 C           23.3570    10.0005    15.0670 opls_157      1 RES        0.145000
    1101 O           23.5704    11.3905    15.1695 opls_154      1 RES       -0.683000
    1102 H           23.5182    11.6319    16.0817 opls_155      1 RES        0.418000
    1103 H           23.1615     9.6844    14.0423 opls_140      1 RES        0.060000
    1104 H           24.3308     9.5747    15.3088 opls_140      1 RES        0.060000
    1105 H           22.6363     9.3432    16.8756 opls_140      1 RES        0.060000
    1106 H           21.9554     8.4127    15.5447 opls_140      1 RES        0.060000
    1107 H           21.2635     9.9799    15.8881 opls_140      1 RES        0.060000
    1108 C           13.1988     6.0385    14.5296 opls_135      1 RES       -0.180000
    1109 C           13.8734     4.7671    14.0136 opls_157      1 RES        0.145000
    1110 O           13.9339     4.6045    12.6143 opls_154      1 RES       -0.683000
    1111 H           14.2059     5.4248    12.2320 opls_155      1 RES        0.418000
    1112 H           13.3410     3.9523    14.5042 opls_140      1 RES        0.060000
    1113 H           14.9105     4.6516    14.3286 opls_140      1 RES        0.060000
    1114 H           13.9905     6.7789    14.4152 opls_140      1 RES        0.060000
    1115 H           12.9734     5.9545    15.5927 opls_140      1 RES        0.060000
    1116 H           12.2758     6.3495    14.0402 opls_140      1 RES        0.060000
    1117 C           30.1262    20.6698    18.0150 opls_135      1 RES       -0.180000
    1118 C           29.7866    19.2165    17.6828 opls_157      1 RES        0.145000
    1119 O           30.7711    18.4763    16.9964 opls_154      1 RES       -0.683000
    1120 H           31.6064    18.6431    17.4056 opls_155      1 RES        0.418000
    1121 H           28.8476    19.2703    17.1319 opls_140      1 RES        0.060000
    1122 H           29.5640    18.5989    18.5529 opls_140      1 RES        0.060000
    1123 H           30.7511    20.5607    18.9014 opls_140      1 RES        0.060000
    1124 H           29.2317    21.2211    18.3048 opls_140      1 RES        0.060000
    1125 H           30.6167    21.2591    17.2403 opls_140      1 RES        0.060000
    1126 C            2.9229     7.9623    28.3233 opls_135      1 RES       -0.180000
    1127 C            3.2490     6.5934    27.7252 opls_157      1 RES        0.145000
    1128 O            3.8177     5.6406    28.5951 opls_154      1 RES       -0.683000
    1129 H            3.3341     5.6544    29.4069 opls_155      1 RES        0.418000
    1130 H            3.8892     6.8101    26.8701 opls_140      1 RES        0.060000
    1131 H            2.3888     6.0727    27.3043 opls_140      1 RES        0.060000
    1132 H            1.9778     7.7698    28.8310 opls_140      1 RES        0.060000
    1133 H            2.7352     8.6945    27.5380 opls_140      1 RES        0.060000
    1134 H            3.6615     8.4058    28.9911 opls_140      1 RES        0.060000
    1135 C           32.1781    27.1852    21.3632 opls_135      1 RES       -0.180000
    1136 C           33.4845    26.4896    20.9792 opls_157      1 RES        0.145000
    1137 O           34.0238    25.5890    21.9206 opls_154      1 RES       -0.683000
    1138 H           33.3228    25.0450    22.2458 opls_155      1 RES        0.418000
    1139 H           34.1710    27.3018    20.7402 opls_140      1 RES        0.060000
    1140 H           33.4245    25.8978    20.0659 opls_140      1 RES        0.060000
    1141 H           31.4376    26.4159    21.1445 opls_140      1 RES        0.060000
    1142 H           31.9815    28.0323    20.7060 opls_140      1 RES        0.060000
    1143 H           32.0902    27.5573    22.3840 opls_140      1 RES        0.060000
    1144 C           33.6956    20.5624     9.7697 opls_135      1 RES       -0.180000
    1145 C           33.7606    22.0287     9.3412 opls_157      1 RES        0.145000
    1146 O           34.0839    22.2814     7.9922 opls_154      1 RES       -0.683000
    1147 H           33.5785    21.6941     7.4512 opls_155      1 RES        0.418000
    1148 H           34.4682    22.4880    10.0314 opls_140      1 RES        0.060000
    1149 H           32.8313    22.5793     9.4879 opls_140      1 RES        0.060000
    1150 H           32.7099    20.2643     9.4126 opls_140      1 RES        0.060000
    1151 H           33.6961    20.4749    10.8562 opls_140      1 RES        0.060000
    1152 H           34.4794    19.8988     9.4045 opls_140      1 RES        0.060000
    1153 C           33.6770    16.9678    31.9834 opls_135      1 RES       -0.180000
    1154 C           32.8163    17.2644    33.2119 opls_157      1 RES        0.145000
    1155 O           33.4613    17.2151    34.4648 opls_154      1 RES       -0.683000
    1156 H           34.2849    17.6727    34.3924 opls_155      1 RES        0.418000
    1157 H           31.9854    16.5621    33.1441 opls_140      1 RES        0.060000
    1158 H           32.3498    18.2494    33.2040 opls_140      1 RES        0.060000
    1159 H           34.1873    17.9184    31.8280 opls_140      1 RES        0.060000
    1160 H           33.0540    16.7783    31.1093 opls_140      1 RES        0.060000
    1161 H           34.3774    16.1355    32.0517 opls_140      1 RES        0.060000
    1162 C           11.1334    31.8843    18.8182 opls_135      1 RES       -0.180000
    1163 C           10.9471    32.9742    17.7622 opls_157      1 RES        0.145000
    1164 O           10.6769    34.2750    18.2344 opls_154      1 RES       -0.683000
    1165 H           11.2679    34.4601    18.9482 opls_155      1 RES        0.418000
    1166 H           10.1595    32.5966    17.1102 opls_140      1 RES        0.060000
    1167 H           11.8072    33.1144    17.1075 opls_140      1 RES        0.060000
    1168 H           12.1625    32.0496    19.1372 opls_140      1 RES        0.060000
    1169 H           11.0803    30.8934    18.3672 opls_140      1 RES        0.060000
    1170 H           10.4413    31.8794    19.6603 opls_140      1 RES        0.060000
    1171 C           24.4991     4.7106    21.3677 opls_135      1 RES       -0.180000
    1172 C           25.7392     4.3403    20.5536 opls_157      1 RES        0.145000
    1173 O           25.8668     4.9404    19.2840 opls_154      1 RES       -0.683000
    1174 H           25.6627     5.8593    19.3686 opls_155      1 RES        0.418000
    1175 H           25.7200     3.2519    20.4989 opls_140      1 RES        0.060000
    1176 H           26.6834     4.5779    21.0436 opls_140      1 RES        0.060000
    1177 H           24.7805     5.6778    21.7842 opls_140      1 RES        0.060000
    1178 H           24.3592     4.0190    22.1985 opls_140      1 RES        0.060000
    1179 H           23.5475     4.7560    20.8380 opls_140      1 RES        0.060000
    1180 C           12.1356    21.8141    24.7205 opls_135      1 RES       -0.180000
    1181 C           12.4316    22.7509    23.5489 opls_157      1 RES        0.145000
    1182 O           12.0907    24.1082    23.7205 opls_154      1 RES       -0.683000
    1183 H           12.3817    24.3810    24.5772 opls_155      1 RES        0.418000
    1184 H           11.9230    22.2989    22.6974 opls_140      1 RES        0.060000
    1185 H           13.4818    22.7867    23.2590 opls_140      1 RES        0.060000
    1186 H           12.9784    22.0064    25.3844 opls_140      1 RES        0.060000
    1187 H           12.1902    20.7715    24.4075 opls_140      1 RES        0.060000
    1188 H           11.1795    21.9357    25.2296 opls_140      1 RES        0.060000
    1189 C           29.0894    13.0826    33.4010 opls_135      1 RES       -0.180000
    1190 C           27.6952    12.4764    33.2378 opls_157      1 RES        0.145000
    1191 O           27.5377    11.1325    33.6346 opls_154      1 RES       -0.683000
    1192 H           27.9647    11.0180    34.4698 opls_155      1 RES        0.418000
    1193 H           27.4467    12.6318    32.1880 opls_140      1 RES        0.060000
    1194 H           26.9132    12.9982    33.7894 opls_140      1 RES        0.060000
    1195 H           29.1079    13.3287    34.4627 opls_140      1 RES        0.060000
    1196 H           29.1755    14.0145    32.8423 opls_140      1 RES        0.060000
    1197 H           29.9404    12.4666    33.1104 opls_140      1 RES        0.060000
    1198 C            4.0366    16.7131    16.6107 opls_135      1 RES       -0.180000
    1199 C            2.9820    16.9074    15.5208 opls_157      1 RES        0.145000
    1200 O            3.4306    17.4295    14.2902 opls_154      1 RES       -0.683000
    1201 H            4.2250    16.9782    14.0486 opls_155      1 RES        0.418000
    1202 H            2.2174    17.5316    15.9832 opls_140      1 RES        0.060000
    1203 H            2.4605    15.9940    15.2350 opls_140      1 RES        0.060000
    1204 H            4.5032    15.7746    16.3114 opls_140      1 RES        0.060000
    1205 H            3.5672    16.5561    17.5818 opls_140      1 RES        0.060000
    1206 H            4.7700    17.5082    16.7453 opls_140      1 RES        0.060000
    1207 C           29.5217    11.3585    23.6838 opls_135      1 RES       -0.180000
    1208 C           28.3487    12.2927    23.9822 opls_157      1 RES        0.145000
    1209 O           28.5189    13.6515    23.6465 opls_154      1 RES       -0.683000
    1210 H           28.9008    13.6980    22.7833 opls_155      1 RES        0.418000
    1211 H           28.1431    12.1491    25.0430 opls_140      1 RES        0.060000
    1212 H           27.4207    12.0203    23.4794 opls_140      1 RES        0.060000
    1213 H           29.4004    11.1744    22.6164 opls_140      1 RES        0.060000
    1214 H           29.4015    10.4066    24.2011 opls_140      1 RES        0.060000
    1215 H           30.5221    11.7183    23.9244 opls_140      1 RES        0.060000
    1216 C            4.2080    24.1645    15.3692 opls_135      1 RES       -0.180000
    1217 C            5.4142    23.6312    14.5956 opls_157      1 RES        0.145000
    1218 O            5.2869    23.5599    13.1932 opls_154      1 RES       -0.683000
    1219 H            4.8997    24.3665    12.8893 opls_155      1 RES        0.418000
    1220 H            5.6236    22.6600    15.0440 opls_140      1 RES        0.060000
    1221 H            6.3283    24.2073    14.7395 opls_140      1 RES        0.060000
    1222 H            4.3142    25.2418    15.2424 opls_140      1 RES        0.060000
    1223 H            4.3005    23.9443    16.4328 opls_140      1 RES        0.060000
    1224 H            3.2222    23.8132    15.0641 opls_140      1 RES        0.060000
    1225 C           32.3123    14.6466    17.3915 opls_135      1 RES       -0.180000
    1226 C           30.7907    14.7096    17.5279 opls_157      1 RES        0.145000
    1227 O           30.0760    15.2237    16.4266 opls_154      1 RES       -0.683000
    1228 H           30.4244    14.8343    15.6392 opls_155      1 RES        0.418000
    1229 H           30.6177    15.2816    18.4395 opls_140      1 RES        0.060000
    1230 H           30.3176    13.7447    17.7107 opls_140      1 RES        0.060000
    1231 H           32.4506    13.7417    16.7998 opls_140      1 RES        0.060000
    1232 H           32.7828    14.4848    18.3613 opls_140      1 RES        0.060000
    1233 H           32.8109    15.5065    16.9442 opls_140      1 RES        0.060000
    1234 C           20.0795     2.7377    31.9943 opls_135      1 RES       -0.180000
    1235 C           19.4028     2.7717    33.3650 opls_157      1 RES        0.145000
    1236 O           20.2435     2.6497    34.4904 opls_154      1 RES       -0.683000
    1237 H           20.9925     3.2117    34.3631 opls_155      1 RES        0.418000
    1238 H           18.6494     1.9852    33.3216 opls_140      1 RES        0.060000
    1239 H           18.8413     3.6845    33.5642 opls_140      1 RES        0.060000
    1240 H           20.4563     3.7563    31.9010 opls_140      1 RES        0.060000
    1241 H           19.3464     2.5808    31.2031 opls_140      1 RES        0.060000
    1242 H           20.8644     1.9970    31.8416 opls_140      1 RES        0.060000
    1243 C            2.5997    28.5587     4.4984 opls_135      1 RES       -0.180000
    1244 C            3.4563    28.5286     3.2323 opls_157      1 RES        0.145000
    1245 O            2.8484    28.0168     2.0675 opls_154      1 RES       -0.683000
    1246 H            1.9831    28.3899     1.9962 opls_155      1 RES        0.418000
    1247 H            4.3490    27.9707     3.5149 opls_140      1 RES        0.060000
    1248 H            3.8257    29.5050     2.9188 opls_140      1 RES        0.060000
    1249 H            1.9970    29.4537     4.3445 opls_140      1 RES        0.060000
    1250 H            3.2175    28.7219     5.3815 opls_140      1 RES        0.060000
    1251 H            1.9842    27.6837     4.7076 opls_140      1 RES        0.060000
    1252 C           23.2593    33.6395    30.9607 opls_135      1 RES       -0.180000
    1253 C           21.9699    32.9324    30.5422 opls_157      1 RES        0.145000
    1254 O           20.7586    33.5373    30.9357 opls_154      1 RES       -0.683000
    1255 H           20.8201    34.4642    30.7622 opls_155      1 RES        0.418000
    1256 H           22.0725    31.9180    30.9278 opls_140      1 RES        0.060000
    1257 H           21.8558    32.8106    29.4651 opls_140      1 RES        0.060000
    1258 H           23.3388    34.4292    30.2136 opls_140      1 RES        0.060000
    1259 H           24.1197    32.9810    30.8412 opls_140      1 RES        0.060000
    1260 H           23.3080    34.0325    31.9762 opls_140      1 RES        0.060000
    1261 C            6.8323     7.8933    23.2482 opls_135      1 RES       -0.180000
    1262 C            5.9739     9.1525    23.3727 opls_157      1 RES        0.145000
    1263 O            6.6479    10.3510    23.6850 opls_154      1 RES       -0.683000
    1264 H            7.4212    10.4057    23.1446 opls_155      1 RES        0.418000
    1265 H            5.2142     8.8980    24.1117 opls_140      1 RES        0.060000
    1266 H            5.4134     9.4027    22.4719 opls_140      1 RES        0.060000
    1267 H            7.2439     7.9966    22.2442 opls_140      1 RES        0.060000
    1268 H            6.2118     6.9973    23.2625 opls_140      1 RES        0.060000
    1269 H            7.6119     7.7429    23.9950 opls_140      1 RES        0.060000
    1270 C           20.2025     2.6830    17.8915 opls_135      1 RES       -0.180000
    1271 C           19.1846     3.5040    17.0992 opls_157      1 RES        0.145000
    1272 O           18.4646     2.8237    16.0957 opls_154      1 RES       -0.683000
    1273 H           18.1735     1.9968    16.4487 opls_155      1 RES        0.418000
    1274 H           19.7542     4.3452    16.7044 opls_140      1 RES        0.060000
    1275 H           18.4039     3.9582    17.7094 opls_140      1 RES        0.060000
    1276 H           19.5675     2.1656    18.6107 opls_140      1 RES        0.060000
    1277 H           20.8756     3.3334    18.4501 opls_140      1 RES        0.060000
    1278 H           20.8324     1.9914    17.3321 opls_140      1 RES        0.060000
    1279 C           27.1061    33.8202    21.5330 opls_135      1 RES       -0.180000
    1280 C           27.8026    32.6555    22.2375 opls_157      1 RES        0.145000
    1281 O           27.0374    31.9332    23.1760 opls_154      1 RES       -0.683000
    1282 H           26.1873    31.7653    22.7990 opls_155      1 RES        0.418000
    1283 H           28.6970    33.0942    22.6798 opls_140      1 RES        0.060000
    1284 H           28.1749    31.8835    21.5641 opls_140      1 RES        0.060000
    1285 H           26.5297    33.3083    20.7623 opls_140      1 RES        0.060000
    1286 H           27.8319    34.4622    21.0338 opls_140      1 RES        0.060000
    1287 H           26.4818    34.4732    22.1429 opls_140      1 RES        0.060000
    1288 C           23.7110    17.4473    11.7139 opls_135      1 RES       -0.180000
    1289 C           24.7135    18.0882    12.6742 opls_157      1 RES        0.145000
    1290 O           24.5818    17.7614    14.0394 opls_154      1 RES       -0.683000
    1291 H           24.4507    16.8282    14.1096 opls_155      1 RES        0.418000
    1292 H           24.6253    19.1593    12.4926 opls_140      1 RES        0.060000
    1293 H           25.7553    17.8536    12.4554 opls_140      1 RES        0.060000
    1294 H           24.1297    16.4499    11.5798 opls_140      1 RES        0.060000
    1295 H           23.7266    17.9473    10.7455 opls_140      1 RES        0.060000
    1296 H           22.6680    17.4127    12.0286 opls_140      1 RES        0.060000
    1297 C            9.5638    33.5072     6.3536 opls_135      1 RES       -0.180000
    1298 C            8.0459    33.5976     6.5135 opls_157      1 RES        0.145000
    1299 O            7.3437    32.3779     6.6000 opls_154      1 RES       -0.683000
    1300 H            7.8087    31.8097     7.1949 opls_155      1 RES        0.418000
    1301 H            7.7148    34.2093     5.6743 opls_140      1 RES        0.060000
    1302 H            7.7210    34.1421     7.4002 opls_140      1 RES        0.060000
    1303 H            9.8898    33.3203     7.3768 opls_140      1 RES        0.060000
    1304 H            9.9792    34.4656     6.0422 opls_140      1 RES        0.060000
    1305 H            9.9507    32.7610     5.6596 opls_140      1 RES        0.060000
    1306 C            9.0014    17.8542    21.0537 opls_135      1 RES       -0.180000
    1307 C            9.6507    18.9892    21.8461 opls_157      1 RES        0.145000
    1308 O            8.8233    20.0789    22.1868 opls_154      1 RES       -0.683000
    1309 H            8.0033    19.7387    22.5106 opls_155      1 RES        0.418000
    1310 H           10.5090    19.2907    21.2457 opls_140      1 RES        0.060000
    1311 H           10.0740    18.6820    22.8024 opls_140      1 RES        0.060000
    1312 H            8.4842    17.2976    21.8353 opls_140      1 RES        0.060000
    1313 H            9.7582    17.1982    20.6237 opls_140      1 RES        0.060000
    1314 H            8.3319    18.1312    20.2394 opls_140      1 RES        0.060000
    1315 C            9.8772    15.5624    33.5585 opls_135      1 RES       -0.180000
    1316 C           11.1970    15.1025    32.9385 opls_157      1 RES        0.145000
    1317 O           12.3767    15.6619    33.4711 opls_154      1 RES       -0.683000
    1318 H           12.3126    15.6469    34.4138 opls_155      1 RES        0.418000
    1319 H           11.0868    15.3018    31.8726 opls_140      1 RES        0.060000
    1320 H           11.3720    14.0287    33.0044 opls_140      1 RES        0.060000
    1321 H            9.8286    14.9587    34.4647 opls_140      1 RES        0.060000
    1322 H            9.0335    15.2831    32.9274 opls_140      1 RES        0.060000
    1323 H            9.7674    16.6259    33.7707 opls_140      1 RES        0.060000
    1324 C            7.0097    19.7589    28.9975 opls_135      1 RES       -0.180000
    1325 C            5.9965    18.6286    29.1808 opls_157      1 RES        0.145000
    1326 O            4.9419    18.8631    30.0868 opls_154      1 RES       -0.683000
    1327 H            4.6000    19.7293    29.9259 opls_155      1 RES        0.418000
    1328 H            6.5961    17.7610    29.4563 opls_140      1 RES        0.060000
    1329 H            5.4846    18.3337    28.2647 opls_140      1 RES        0.060000
    1330 H            6.4860    20.4253    28.3120 opls_140      1 RES        0.060000
    1331 H            7.9057    19.3991    28.4916 opls_140      1 RES        0.060000
    1332 H            7.3471    20.2793    29.8939 opls_140      1 RES        0.060000
    1333 C           19.2958    14.4568    33.3885 opls_135      1 RES       -0.180000
    1334 C           18.8178    15.9076    33.3214 opls_157      1 RES        0.145000
    1335 O           17.4738    16.1492    33.6727 opls_154      1 RES       -0.683000
    1336 H           17.2823    15.6663    34.4621 opls_155      1 RES        0.418000
    1337 H           19.0457    16.2277    32.3047 opls_140      1 RES        0.060000
    1338 H           19.3752    16.5924    33.9605 opls_140      1 RES        0.060000
    1339 H           19.4862    14.3288    34.4541 opls_140      1 RES        0.060000
    1340 H           20.2440    14.3357    32.8646 opls_140      1 RES        0.060000
    1341 H           18.6259    13.6903    32.9991 opls_140      1 RES        0.060000
    1342 C           27.4297    16.6789    14.3993 opls_135      1 RES       -0.180000
    1343 C           28.5659    16.4267    13.4076 opls_157      1 RES        0.145000
    1344 O           28.1942    16.0955    12.0884 opls_154      1 RES       -0.683000
    1345 H           27.5058    16.6837    11.8178 opls_155      1 RES        0.418000
    1346 H           29.1747    15.6527    13.8748 opls_140      1 RES        0.060000
    1347 H           29.2418    17.2719    13.2773 opls_140      1 RES        0.060000
    1348 H           27.1395    17.7014    14.1579 opls_140      1 RES        0.060000
    1349 H           27.8002    16.6717    15.4244 opls_140      1 RES        0.060000
    1350 H           26.5801    15.9966    14.3715 opls_140      1 RES        0.060000
    1351 C           17.2309    24.1379    26.1141 opls_135      1 RES       -0.180000
    1352 C           18.3783    23.2553    26.6060 opls_157      1 RES        0.145000
    1353 O           18.9760    22.4035    25.6544 opls_154      1 RES       -0.683000
    1354 H           19.1193    22.8984    24.8622 opls_155      1 RES        0.418000
    1355 H           17.9633    22.7073    27.4519 opls_140      1 RES        0.060000
    1356 H           19.2223    23.8077    27.0191 opls_140      1 RES        0.060000
    1357 H           17.7642    24.9540    25.6265 opls_140      1 RES        0.060000
    1358 H           16.6765    24.5577    26.9534 opls_140      1 RES        0.060000
    1359 H           16.4945    23.6800    25.4536 opls_140      1 RES        0.060000
    1360 C           29.4678    25.5908     4.3342 opls_135      1 RES       -0.180000
    1361 C           29.9546    26.9849     4.7309 opls_157      1 RES        0.145000
    1362 O           29.2645    28.0802     4.1722 opls_154      1 RES       -0.683000
    1363 H           28.3371    27.9106     4.2371 opls_155      1 RES        0.418000
    1364 H           31.0153    26.9898     4.4797 opls_140      1 RES        0.060000
    1365 H           29.9213    27.1823     5.8023 opls_140      1 RES        0.060000
    1366 H           28.6034    25.4578     4.9847 opls_140      1 RES        0.060000
    1367 H           30.2038    24.8321     4.6004 opls_140      1 RES        0.060000
    1368 H           29.2183    25.4269     3.2859 opls_140      1 RES        0.060000
    1369 C            6.9552    33.5160    24.3886 opls_135      1 RES       -0.180000
    1370 C            6.8201    33.8568    25.8730 opls_157      1 RES        0.145000
    1371 O            5.6137    34.4648    26.2768 opls_154      1 RES       -0.683000
    1372 H            4.8974    33.9996    25.8723 opls_155      1 RES        0.418000
    1373 H            7.6912    34.4728    26.0962 opls_140      1 RES        0.060000
    1374 H            6.9081    32.9983    26.5389 opls_140      1 RES        0.060000
    1375 H            6.3900    32.5868    24.3159 opls_140      1 RES        0.060000
    1376 H            7.9917    33.2954    24.1335 opls_140      1 RES        0.060000
    1377 H            6.6105    34.2601    23.6706 opls_140      1 RES        0.060000
    1378 C           29.8996    21.6103     5.2929 opls_135      1 RES       -0.180000
    1379 C           30.8538    21.2696     6.4379 opls_157      1 RES        0.145000
    1380 O           30.3864    21.5113     7.7461 opls_154      1 RES       -0.683000
    1381 H           29.5011    21.1871     7.8092 opls_155      1 RES        0.418000
    1382 H           31.7653    21.8234     6.2131 opls_140      1 RES        0.060000
    1383 H           31.1628    20.2247     6.4668 opls_140      1 RES        0.060000
    1384 H           29.2372    20.7447     5.2832 opls_140      1 RES        0.060000
    1385 H           30.4289    21.6345     4.3404 opls_140      1 RES        0.060000
    1386 H           29.3459    22.5466     5.3642 opls_140      1 RES        0.060000
    1387 C           10.0757    18.8485    30.0509 opls_135      1 RES       -0.180000
    1388 C           10.5898    17.6794    30.8916 opls_157      1 RES        0.145000
    1389 O            9.6239    16.9329    31.5973 opls_154      1 RES       -0.683000
    1390 H            8.8984    16.7624    31.0163 opls_155      1 RES        0.418000
    1391 H           11.3379    18.1199    31.5507 opls_140      1 RES        0.060000
    1392 H           11.1306    16.9231    30.3228 opls_140      1 RES        0.060000
    1393 H            9.7191    18.3439    29.1530 opls_140      1 RES        0.060000
    1394 H           10.8942    19.5066    29.7593 opls_140      1 RES        0.060000
    1395 H            9.3088    19.4842    30.4932 opls_140      1 RES        0.060000
    1396 C            9.5269    24.6327    27.5068 opls_135      1 RES       -0.180000
    1397 C           10.3724    24.8664    26.2545 opls_157      1 RES        0.145000
    1398 O           11.6995    25.2977    26.4568 opls_154      1 RES       -0.683000
    1399 H           12.0800    24.7731    27.1446 opls_155      1 RES        0.418000
    1400 H            9.7932    25.5700    25.6565 opls_140      1 RES        0.060000
    1401 H           10.4841    23.9874    25.6197 opls_140      1 RES        0.060000
    1402 H            9.8640    23.6473    27.8286 opls_140      1 RES        0.060000
    1403 H            8.4697    24.5557    27.2529 opls_140      1 RES        0.060000
    1404 H            9.6012    25.3701    28.3060 opls_140      1 RES        0.060000
    1405 C           19.6768     8.0191     9.6718 opls_135      1 RES       -0.180000
    1406 C           20.7978     7.0345    10.0061 opls_157      1 RES        0.145000
    1407 O           20.4096     5.7907    10.5449 opls_154      1 RES       -0.683000
    1408 H           19.6817     5.4628    10.0392 opls_155      1 RES        0.418000
    1409 H           21.4622     7.5865    10.6709 opls_140      1 RES        0.060000
    1410 H           21.4208     6.7601     9.1548 opls_140      1 RES        0.060000
    1411 H           19.3224     7.6434     8.7119 opls_140      1 RES        0.060000
    1412 H           20.0750     9.0208     9.5102 opls_140      1 RES        0.060000
    1413 H           18.8668     8.1198    10.3943 opls_140      1 RES        0.060000
    1414 C           24.9146    28.3890    27.7899 opls_135      1 RES       -0.180000
    1415 C           26.2601    28.8053    27.1946 opls_157      1 RES        0.145000
    1416 O           26.8901    27.8770    26.3406 opls_154      1 RES       -0.683000
    1417 H           26.2410    27.5335    25.7458 opls_155      1 RES        0.418000
    1418 H           26.8764    29.0626    28.0560 opls_140      1 RES        0.060000
    1419 H           26.2223    29.7162    26.5972 opls_140      1 RES        0.060000
    1420 H           24.2296    28.5880    26.9657 opls_140      1 RES        0.060000
    1421 H           24.6374    29.0419    28.6175 opls_140      1 RES        0.060000
    1422 H           24.8244    27.3668    28.1573 opls_140      1 RES        0.060000
    1423 C           17.5927     7.9776    13.4916 opls_135      1 RES       -0.180000
    1424 C           16.9717     6.5931    13.6797 opls_157      1 RES        0.145000
    1425 O           16.9176     6.0963    14.9982 opls_154      1 RES       -0.683000
    1426 H           16.6112     6.7888    15.5636 opls_155      1 RES        0.418000
    1427 H           17.5379     5.9426    13.0132 opls_140      1 RES        0.060000
    1428 H           15.9404     6.5148    13.3354 opls_140      1 RES        0.060000
    1429 H           16.7706     8.6360    13.7724 opls_140      1 RES        0.060000
    1430 H           17.8218     8.1611    12.4419 opls_140      1 RES        0.060000
    1431 H           18.5016     8.1989    14.0510 opls_140      1 RES        0.060000
    1432 C            8.8562    23.3719    23.8633 opls_135      1 RES       -0.180000
    1433 C            7.8849    22.9703    22.7528 opls_157      1 RES        0.145000
    1434 O            8.2694    23.2790    21.4318 opls_154      1 RES       -0.683000
    1435 H            9.1762    23.0365    21.3227 opls_155      1 RES        0.418000
    1436 H            6.9392    23.4358    23.0302 opls_140      1 RES        0.060000
    1437 H            7.6685    21.9027    22.7123 opls_140      1 RES        0.060000
    1438 H            9.5922    22.5689    23.8236 opls_140      1 RES        0.060000
    1439 H            8.3704    23.3296    24.8382 opls_140      1 RES        0.060000
    1440 H            9.3211    24.3551    23.7906 opls_140      1 RES        0.060000
    1441 C           33.4924    12.6769    31.9232 opls_135      1 RES       -0.180000
    1442 C           32.6615    13.5859    32.8293 opls_157      1 RES        0.145000
    1443 O           32.6155    13.2470    34.1971 opls_154      1 RES       -0.683000
    1444 H           33.4924    13.0378    34.4804 opls_155      1 RES        0.418000
    1445 H           31.6723    13.6037    32.3718 opls_140      1 RES        0.060000
    1446 H           32.9841    14.6271    32.8355 opls_140      1 RES        0.060000
    1447 H           34.5053    13.0337    32.1097 opls_140      1 RES        0.060000
    1448 H           33.2633    12.8605    30.8735 opls_140      1 RES        0.060000
    1449 H           33.4043    11.6013    32.0765 opls_140      1 RES        0.060000
    1450 C           26.8385     8.7022    26.5318 opls_135      1 RES       -0.180000
    1451 C           26.6454     9.9999    25.7466 opls_157      1 RES        0.145000
    1452 O           27.2469    10.0660    24.4731 opls_154      1 RES       -0.683000
    1453 H           27.0715     9.2555    24.0199 opls_155      1 RES        0.418000
    1454 H           27.0007    10.7839    26.4154 opls_140      1 RES        0.060000
    1455 H           25.6036    10.2529    25.5497 opls_140      1 RES        0.060000
    1456 H           26.0942     8.0483    26.0775 opls_140      1 RES        0.060000
    1457 H           26.5673     8.8377    27.5787 opls_140      1 RES        0.060000
    1458 H           27.8328     8.2555    26.5240 opls_140      1 RES        0.060000
    1459 C           16.0141    19.7292    16.2502 opls_135      1 RES       -0.180000
    1460 C           15.3222    20.8623    15.4919 opls_157      1 RES        0.145000
    1461 O           15.4876    20.8820    14.0917 opls_154      1 RES       -0.683000
    1462 H           15.3629    20.0036    13.7662 opls_155      1 RES        0.418000
    1463 H           15.6842    21.7746    15.9661 opls_140      1 RES        0.060000
    1464 H           14.2403    20.8918    15.6210 opls_140      1 RES        0.060000
    1465 H           15.3264    18.8979    16.0947 opls_140      1 RES        0.060000
    1466 H           16.0450    19.9395    17.3193 opls_140      1 RES        0.060000
    1467 H           17.0322    19.4769    15.9539 opls_140      1 RES        0.060000
    1468 C           25.0724    20.4083    32.7348 opls_135      1 RES       -0.180000
    1469 C           26.5160    20.6254    32.2800 opls_157      1 RES        0.145000
    1470 O           27.0453    19.6804    31.3774 opls_154      1 RES       -0.683000
    1471 H           26.3999    19.5172    30.7067 opls_155      1 RES        0.418000
    1472 H           27.0914    20.6857    33.2038 opls_140      1 RES        0.060000
    1473 H           26.6893    21.5790    31.7813 opls_140      1 RES        0.060000
    1474 H           24.5061    20.8038    31.8916 opls_140      1 RES        0.060000
    1475 H           24.8433    21.0218    33.6061 opls_140      1 RES        0.060000
    1476 H           24.7739    19.3903    32.9849 opls_140      1 RES        0.060000
    1477 C           18.1396    20.4081    13.0962 opls_135      1 RES       -0.180000
    1478 C           17.8472    19.1833    12.2290 opls_157      1 RES        0.145000
    1479 O           17.5479    19.4238    10.8723 opls_154      1 RES       -0.683000
    1480 H           18.1697    20.0524    10.5385 opls_155      1 RES        0.418000
    1481 H           17.0412    18.6633    12.7467 opls_140      1 RES        0.060000
    1482 H           18.6622    18.4608    12.1859 opls_140      1 RES        0.060000
    1483 H           19.1769    20.6253    12.8414 opls_140      1 RES        0.060000
    1484 H           18.1041    20.1517    14.1551 opls_140      1 RES        0.060000
    1485 H           17.4969    21.2788    12.9661 opls_140      1 RES        0.060000
    1486 C           19.9129    22.3031    11.3367 opls_135      1 RES       -0.180000
    1487 C           20.0759    23.5073    10.4086 opls_157      1 RES        0.145000
    1488 O           20.2644    23.2311     9.0388 opls_154      1 RES       -0.683000
    1489 H           19.6427    22.5674     8.7819 opls_155      1 RES        0.418000
    1490 H           20.9017    24.0763    10.8355 opls_140      1 RES        0.060000
    1491 H           19.2305    24.1953    10.4158 opls_140      1 RES        0.060000
    1492 H           18.8672    22.0367    11.1826 opls_140      1 RES        0.060000
    1493 H           20.0305    22.5978    12.3795 opls_140      1 RES        0.060000
    1494 H           20.5777    21.4542    11.1771 opls_140      1 RES        0.060000
    1495 C           22.1977    33.5988     3.7572 opls_135      1 RES       -0.180000
    1496 C           21.0348    32.8947     3.0574 opls_157      1 RES        0.145000
    1497 O           19.7858    33.5484     3.0898 opls_154      1 RES       -0.683000
    1498 H           19.9237    34.4613     2.8884 opls_155      1 RES        0.418000
    1499 H           20.9974    31.9041     3.5107 opls_140      1 RES        0.060000
    1500 H           21.1977    32.7092     1.9958 opls_140      1 RES        0.060000
    1501 H           22.4957    34.3390     3.0147 opls_140      1 RES        0.060000
    1502 H           23.0352    32.9161     3.9007 opls_140      1 RES        0.060000
    1503 H           21.9973    34.0526     4.7278 opls_140      1 RES        0.060000
    1504 C           10.6344     4.9110    15.8620 opls_135      1 RES       -0.180000
    1505 C           10.3587     6.4075    16.0114 opls_157      1 RES        0.145000
    1506 O           10.1535     7.1363    14.8219 opls_154      1 RES       -0.683000
    1507 H            9.5691     6.6414    14.2681 opls_155      1 RES        0.418000
    1508 H           11.1993     6.7875    16.5920 opls_140      1 RES        0.060000
    1509 H            9.4783     6.6427    16.6094 opls_140      1 RES        0.060000
    1510 H            9.6323     4.5084    15.7146 opls_140      1 RES        0.060000
    1511 H           11.0271     4.4940    16.7894 opls_140      1 RES        0.060000
    1512 H           11.3176     4.6043    15.0700 opls_140      1 RES        0.060000
    1513 C           29.4928    20.3166    32.1548 opls_135      1 RES       -0.180000
    1514 C           29.5539    21.6453    32.9090 opls_157      1 RES        0.145000
    1515 O           29.7499    21.5744    34.3035 opls_154      1 RES       -0.683000
    1516 H           30.4357    20.9472    34.4750 opls_155      1 RES        0.418000
    1517 H           28.6283    22.1567    32.6447 opls_140      1 RES        0.060000
    1518 H           30.3469    22.3138    32.5739 opls_140      1 RES        0.060000
    1519 H           30.5480    20.0619    32.0563 opls_140      1 RES        0.060000
    1520 H           29.0899    20.4575    31.1519 opls_140      1 RES        0.060000
    1521 H           28.9190    19.5088    32.6092 opls_140      1 RES        0.060000
    1522 C           18.4156    27.1806    10.3800 opls_135      1 RES       -0.180000
    1523 C           19.2288    27.2983     9.0905 opls_157      1 RES        0.145000
    1524 O           18.5169    27.6330     7.9204 opls_154      1 RES       -0.683000
    1525 H           17.9255    28.3409     8.1255 opls_155      1 RES        0.418000
    1526 H           19.7483    26.3441     9.0025 opls_140      1 RES        0.060000
    1527 H           20.0221    28.0448     9.1285 opls_140      1 RES        0.060000
    1528 H           18.3014    28.2242    10.6732 opls_140      1 RES        0.060000
    1529 H           18.9910    26.6781    11.1575 opls_140      1 RES        0.060000
    1530 H           17.4565    26.6661    10.3220 opls_140      1 RES        0.060000
    1531 C           21.6398    27.7184    13.8988 opls_135      1 RES       -0.180000
    1532 C           20.7618    26.5756    13.3878 opls_157      1 RES        0.145000
    1533 O           19.3669    26.7728    13.4462 opls_154      1 RES       -0.683000
    1534 H           19.1767    27.6414    13.1263 opls_155      1 RES        0.418000
    1535 H           21.0827    25.7036    13.9577 opls_140      1 RES        0.060000
    1536 H           20.9379    26.3076    12.3460 opls_140      1 RES        0.060000
    1537 H           21.6384    28.4033    13.0510 opls_140      1 RES        0.060000
    1538 H           22.6650    27.3816    14.0524 opls_140      1 RES        0.060000
    1539 H           21.3334    28.2111    14.8216 opls_140      1 RES        0.060000
    1540 C           16.2960    25.5923     7.7513 opls_135      1 RES       -0.180000
    1541 C           15.9558    24.1355     8.0672 opls_157      1 RES        0.145000
    1542 O           16.9331    23.3921     8.7602 opls_154      1 RES       -0.683000
    1543 H           17.2624    23.9233     9.4690 opls_155      1 RES        0.418000
    1544 H           15.7043    23.6943     7.1027 opls_140      1 RES        0.060000
    1545 H           15.0598    24.0068     8.6744 opls_140      1 RES        0.060000
    1546 H           16.0878    26.0858     8.7007 opls_140      1 RES        0.060000
    1547 H           15.6102    25.9989     7.0080 opls_140      1 RES        0.060000
    1548 H           17.3033    25.8051     7.3935 opls_140      1 RES        0.060000
    1549 C           21.6640    20.6654    33.8372 opls_135      1 RES       -0.180000
    1550 C           21.8345    20.1893    32.3943 opls_157      1 RES        0.145000
    1551 O           21.9430    21.1886    31.4055 opls_154      1 RES       -0.683000
    1552 H           22.5418    21.8500    31.7170 opls_155      1 RES        0.418000
    1553 H           20.9898    19.5227    32.2207 opls_140      1 RES        0.060000
    1554 H           22.7163    19.5703    32.2287 opls_140      1 RES        0.060000
    1555 H           22.6869    20.9179    34.1162 opls_140      1 RES        0.060000
    1556 H           21.3364    19.8480    34.4797 opls_140      1 RES        0.060000
    1557 H           20.9771    21.4931    34.0135 opls_140      1 RES        0.060000
    1558 C           15.0048    19.4474    19.9772 opls_135      1 RES       -0.180000
    1559 C           15.9613    18.3404    20.4216 opls_157      1 RES        0.145000
    1560 O           16.3397    17.3987    19.4427 opls_154      1 RES       -0.683000
    1561 H           16.5561    17.8656    18.6501 opls_155      1 RES        0.418000
    1562 H           15.4699    17.8765    21.2768 opls_140      1 RES        0.060000
    1563 H           16.9138    18.7012    20.8097 opls_140      1 RES        0.060000
    1564 H           15.6787    20.1439    19.4782 opls_140      1 RES        0.060000
    1565 H           14.5762    19.9593    20.8388 opls_140      1 RES        0.060000
    1566 H           14.1690    19.1608    19.3390 opls_140      1 RES        0.060000
    1567 C           30.6482    32.7412    24.9306 opls_135      1 RES       -0.180000
    1568 C           30.8808    31.6995    23.8358 opls_157      1 RES        0.145000
    1569 O           29.8750    30.7266    23.6623 opls_154      1 RES       -0.683000
    1570 H           29.0363    31.1618    23.6748 opls_155      1 RES        0.418000
    1571 H           31.8489    31.2588    24.0739 opls_140      1 RES        0.060000
    1572 H           31.0039    32.1195    22.8375 opls_140      1 RES        0.060000
    1573 H           29.9701    33.4396    24.4400 opls_140      1 RES        0.060000
    1574 H           31.5695    33.2772    25.1587 opls_140      1 RES        0.060000
    1575 H           30.2510    32.3876    25.8821 opls_140      1 RES        0.060000
    1576 C            5.0105    17.5617     3.6392 opls_135      1 RES       -0.180000
    1577 C            5.1147    18.7598     2.6951 opls_157      1 RES        0.145000
    1578 O            3.9503    19.1064     1.9794 opls_154      1 RES       -0.683000
    1579 H            3.2186    19.0884     2.5771 opls_155      1 RES        0.418000
    1580 H            5.9515    18.5229     2.0381 opls_140      1 RES        0.060000
    1581 H            5.3998    19.6913     3.1842 opls_140      1 RES        0.060000
    1582 H            4.5291    18.0013     4.5128 opls_140      1 RES        0.060000
    1583 H            5.9998    17.2187     3.9422 opls_140      1 RES        0.060000
    1584 H            4.4751    16.6839     3.2772 opls_140      1 RES        0.060000
    1585 C            2.7443    10.3920    10.5337 opls_135      1 RES       -0.180000
    1586 C            2.7819     9.3971     9.3732 opls_157      1 RES        0.145000
    1587 O            2.6564     9.9323     8.0748 opls_154      1 RES       -0.683000
    1588 H            3.2148    10.6921     8.0121 opls_155      1 RES        0.418000
    1589 H            1.9990     8.6742     9.6025 opls_140      1 RES        0.060000
    1590 H            3.6974     8.8080     9.3185 opls_140      1 RES        0.060000
    1591 H            3.7610    10.7849    10.5299 opls_140      1 RES        0.060000
    1592 H            2.5905     9.8769    11.4819 opls_140      1 RES        0.060000
    1593 H            1.9998    11.1868    10.4879 opls_140      1 RES        0.060000
    1594 C            5.5060    23.1776    29.4801 opls_135      1 RES       -0.180000
    1595 C            6.6713    23.6289    28.5992 opls_157      1 RES        0.145000
    1596 O            7.9335    23.7292    29.2197 opls_154      1 RES       -0.683000
    1597 H            8.0650    22.9585    29.7504 opls_155      1 RES        0.418000
    1598 H            6.3432    24.5751    28.1689 opls_140      1 RES        0.060000
    1599 H            6.8598    22.9834    27.7413 opls_140      1 RES        0.060000
    1600 H            5.6472    22.0972    29.5088 opls_140      1 RES        0.060000
    1601 H            4.5513    23.3753    28.9926 opls_140      1 RES        0.060000
    1602 H            5.4386    23.6066    30.4799 opls_140      1 RES        0.060000
    1603 C           17.6179    10.9379    31.8377 opls_135      1 RES       -0.180000
    1604 C           16.6004    10.3975    30.8325 opls_157      1 RES        0.145000
    1605 O           17.0169    10.3207    29.4876 opls_154      1 RES       -0.683000
    1606 H           17.8854     9.9488    29.4671 opls_155      1 RES        0.418000
    1607 H           15.7219    11.0300    30.9602 opls_140      1 RES        0.060000
    1608 H           16.2505     9.3881    31.0489 opls_140      1 RES        0.060000
    1609 H           18.2464    10.0656    32.0170 opls_140      1 RES        0.060000
    1610 H           17.1336    11.1979    32.7789 opls_140      1 RES        0.060000
    1611 H           18.2033    11.8077    31.5392 opls_140      1 RES        0.060000
    1612 C           31.6632     5.6593    17.9852 opls_135      1 RES       -0.180000
    1613 C           31.5210     5.2405    16.5215 opls_157      1 RES        0.145000
    1614 O           32.2089     6.0202    15.5692 opls_154      1 RES       -0.683000
    1615 H           33.0830     6.1785    15.8913 opls_155      1 RES        0.418000
    1616 H           30.4460     5.2187    16.3428 opls_140      1 RES        0.060000
    1617 H           31.8588     4.2256    16.3117 opls_140      1 RES        0.060000
    1618 H           32.6334     5.2383    18.2493 opls_140      1 RES        0.060000
    1619 H           30.9098     5.1715    18.6036 opls_140      1 RES        0.060000
    1620 H           31.6064     6.7245    18.2090 opls_140      1 RES        0.060000
    1621 C           13.1330    10.6654    31.2808 opls_135      1 RES       -0.180000
    1622 C           12.1557    11.0270    32.3997 opls_157      1 RES        0.145000
    1623 O           12.6913    11.1338    33.6996 opls_154      1 RES       -0.683000
    1624 H           13.4946    11.6290    33.6495 opls_155      1 RES        0.418000
    1625 H           11.3694    10.2749    32.3345 opls_140      1 RES        0.060000
    1626 H           11.6435    11.9784    32.2562 opls_140      1 RES        0.060000
    1627 H           13.6074    11.6247    31.0739 opls_140      1 RES        0.060000
    1628 H           12.5982    10.3584    30.3821 opls_140      1 RES        0.060000
    1629 H           13.8651     9.8849    31.4883 opls_140      1 RES        0.060000
    1630 C           22.2267    29.7523    22.0185 opls_135      1 RES       -0.180000
    1631 C           21.7665    31.1824    21.7345 opls_157      1 RES        0.145000
    1632 O           21.9422    31.6554    20.4178 opls_154      1 RES       -0.683000
    1633 H           21.6560    30.9816    19.8202 opls_155      1 RES        0.418000
    1634 H           22.2910    31.7934    22.4692 opls_140      1 RES        0.060000
    1635 H           20.7087    31.3591    21.9296 opls_140      1 RES        0.060000
    1636 H           21.3954    29.1641    21.6298 opls_140      1 RES        0.060000
    1637 H           22.2895    29.5704    23.0914 opls_140      1 RES        0.060000
    1638 H           23.1809    29.4397    21.5943 opls_140      1 RES        0.060000
    1639 C           18.6307    19.4001    33.5276 opls_135      1 RES       -0.180000
    1640 C           18.6348    20.3657    32.3420 opls_157      1 RES        0.145000
    1641 O           19.1184    19.8631    31.1166 opls_154      1 RES       -0.683000
    1642 H           18.7410    19.0079    30.9773 opls_155      1 RES        0.418000
    1643 H           19.2018    21.2292    32.6899 opls_140      1 RES        0.060000
    1644 H           17.6528    20.7625    32.0849 opls_140      1 RES        0.060000
    1645 H           17.7306    18.8144    33.3412 opls_140      1 RES        0.060000
    1646 H           18.4895    19.9373    34.4655 opls_140      1 RES        0.060000
    1647 H           19.5083    18.7676    33.6613 opls_140      1 RES        0.060000
    1648 C            3.3242    10.2906     3.6015 opls_135      1 RES       -0.180000
    1649 C            4.5150     9.5366     3.0089 opls_157      1 RES        0.145000
    1650 O            5.2453    10.1974     1.9998 opls_154      1 RES       -0.683000
    1651 H            5.3912    11.0894     2.2753 opls_155      1 RES        0.418000
    1652 H            4.1005     8.5877     2.6685 opls_140      1 RES        0.060000
    1653 H            5.2780     9.2619     3.7372 opls_140      1 RES        0.060000
    1654 H            3.8097    10.9644     4.3074 opls_140      1 RES        0.060000
    1655 H            2.6832     9.6179     4.1714 opls_140      1 RES        0.060000
    1656 H            2.6747    10.8251     2.9083 opls_140      1 RES        0.060000
    1657 C           23.8599    21.3332    28.0817 opls_135      1 RES       -0.180000
    1658 C           24.5391    20.5338    29.1941 opls_157      1 RES        0.145000
    1659 O           23.6986    19.7710    30.0307 opls_154      1 RES       -0.683000
    1660 H           23.0754    19.3136    29.4872 opls_155      1 RES        0.418000
    1661 H           25.1207    21.2700    29.7490 opls_140      1 RES        0.060000
    1662 H           25.2723    19.8089    28.8404 opls_140      1 RES        0.060000
    1663 H           23.6925    20.5696    27.3221 opls_140      1 RES        0.060000
    1664 H           24.5417    22.0739    27.6639 opls_140      1 RES        0.060000
    1665 H           22.9423    21.8641    28.3352 opls_140      1 RES        0.060000
    1666 C           24.5582    23.9135    12.7850 opls_135      1 RES       -0.180000
    1667 C           23.4010    24.6913    13.4124 opls_157      1 RES        0.145000
    1668 O           23.7113    25.5048    14.5215 opls_154      1 RES       -0.683000
    1669 H           24.5003    25.9863    14.3245 opls_155      1 RES        0.418000
    1670 H           22.6538    23.9337    13.6487 opls_140      1 RES        0.060000
    1671 H           22.8980    25.3746    12.7281 opls_140      1 RES        0.060000
    1672 H           25.0382    24.6754    12.1708 opls_140      1 RES        0.060000
    1673 H           24.1867    23.1349    12.1187 opls_140      1 RES        0.060000
    1674 H           25.2635    23.4320    13.4623 opls_140      1 RES        0.060000
    1675 C            7.7015    15.2544     4.5560 opls_135      1 RES       -0.180000
    1676 C            6.8266    14.8740     5.7508 opls_157      1 RES        0.145000
    1677 O            5.8162    13.9184     5.5182 opls_154      1 RES       -0.683000
    1678 H            6.1869    13.2126     5.0107 opls_155      1 RES        0.418000
    1679 H            6.4275    15.8208     6.1146 opls_140      1 RES        0.060000
    1680 H            7.3780    14.4612     6.5957 opls_140      1 RES        0.060000
    1681 H            8.4079    14.4252     4.5178 opls_140      1 RES        0.060000
    1682 H            8.2667    16.1633     4.7623 opls_140      1 RES        0.060000
    1683 H            7.2027    15.4095     3.5993 opls_140      1 RES        0.060000
    1684 C           26.9790    22.6255     3.1696 opls_135      1 RES       -0.180000
    1685 C           27.7932    21.4432     2.6433 opls_157      1 RES        0.145000
    1686 O           29.0084    21.7480     1.9964 opls_154      1 RES       -0.683000
    1687 H           29.4660    22.3929     2.5138 opls_155      1 RES        0.418000
    1688 H           27.1044    20.8976     1.9984 opls_140      1 RES        0.060000
    1689 H           28.0856    20.7250     3.4093 opls_140      1 RES        0.060000
    1690 H           27.4905    22.8564     4.1040 opls_140      1 RES        0.060000
    1691 H           25.9622    22.3185     3.4144 opls_140      1 RES        0.060000
    1692 H           26.8924    23.5004     2.5252 opls_140      1 RES        0.060000
    1693 C           30.2378    31.7714    10.6603 opls_135      1 RES       -0.180000
    1694 C           31.3902    32.7549    10.8668 opls_157      1 RES        0.145000
    1695 O           32.3226    32.4364    11.8754 opls_154      1 RES       -0.683000
    1696 H           32.5435    31.5210    11.7965 opls_155      1 RES        0.418000
    1697 H           30.9064    33.7168    11.0366 opls_140      1 RES        0.060000
    1698 H           32.0115    32.9077     9.9844 opls_140      1 RES        0.060000
    1699 H           30.7094    30.9900    10.0644 opls_140      1 RES        0.060000
    1700 H           29.4485    32.2192    10.0565 opls_140      1 RES        0.060000
    1701 H           29.7565    31.3697    11.5519 opls_140      1 RES        0.060000
    1702 C            6.7998    33.4670     9.7494 opls_135      1 RES       -0.180000
    1703 C            7.9736    33.5519    10.7255 opls_157      1 RES        0.145000
    1704 O            9.2671    33.4683    10.1705 opls_154      1 RES       -0.683000
    1705 H            9.2983    34.0235     9.4064 opls_155      1 RES        0.418000
    1706 H            7.7833    32.7662    11.4566 opls_140      1 RES        0.060000
    1707 H            8.0053    34.4727    11.3080 opls_140      1 RES        0.060000
    1708 H            6.7617    34.4806     9.3502 opls_140      1 RES        0.060000
    1709 H            5.8657    33.2836    10.2803 opls_140      1 RES        0.060000
    1710 H            6.8593    32.7193     8.9585 opls_140      1 RES        0.060000
    1711 C           29.1757    26.9068     8.3844 opls_135      1 RES       -0.180000
    1712 C           28.3012    27.3710     9.5495 opls_157      1 RES        0.145000
    1713 O           28.9630    27.9782    10.6364 opls_154      1 RES       -0.683000
    1714 H           29.5912    28.5955    10.2937 opls_155      1 RES        0.418000
    1715 H           27.7416    26.4840     9.8465 opls_140      1 RES        0.060000
    1716 H           27.5401    28.1012     9.2745 opls_140      1 RES        0.060000
    1717 H           29.3451    27.8370     7.8421 opls_140      1 RES        0.060000
    1718 H           28.6230    26.2351     7.7275 opls_140      1 RES        0.060000
    1719 H           30.1100    26.4019     8.6296 opls_140      1 RES        0.060000
    1720 C           11.4349    27.4858     2.7463 opls_135      1 RES       -0.180000
    1721 C           11.3665    26.5117     3.9228 opls_157      1 RES        0.145000
    1722 O           11.1802    25.1499     3.6084 opls_154      1 RES       -0.683000
    1723 H           11.7599    24.9282     2.8957 opls_155      1 RES        0.418000
    1724 H           10.5743    26.9032     4.5610 opls_140      1 RES        0.060000
    1725 H           12.2558    26.5083     4.5531 opls_140      1 RES        0.060000
    1726 H           12.4625    27.3597     2.4055 opls_140      1 RES        0.060000
    1727 H           11.3217    28.5150     3.0871 opls_140      1 RES        0.060000
    1728 H           10.7172    27.3459     1.9379 opls_140      1 RES        0.060000
    1729 C           14.5409     7.4232     5.8281 opls_135      1 RES       -0.180000
    1730 C           15.0944     7.1698     7.2307 opls_157      1 RES        0.145000
    1731 O           15.8097     8.2265     7.8305 opls_154      1 RES       -0.683000
    1732 H           15.3263     9.0269     7.6939 opls_155      1 RES        0.418000
    1733 H           15.6941     6.2649     7.1325 opls_140      1 RES        0.060000
    1734 H           14.3358     6.9220     7.9731 opls_140      1 RES        0.060000
    1735 H           13.6385     7.9968     6.0397 opls_140      1 RES        0.060000
    1736 H           14.2377     6.4889     5.3556 opls_140      1 RES        0.060000
    1737 H           15.1912     7.9336     5.1177 opls_140      1 RES        0.060000
    1738 C           25.1862    30.3226     2.9936 opls_135      1 RES       -0.180000
    1739 C           23.8173    29.6461     2.9148 opls_157      1 RES        0.145000
    1740 O           22.6886    30.4836     3.0281 opls_154      1 RES       -0.683000
    1741 H           22.8279    31.2439     2.4844 opls_155      1 RES        0.418000
    1742 H           23.8435    28.8769     3.6867 opls_140      1 RES        0.060000
    1743 H           23.6394    29.1030     1.9865 opls_140      1 RES        0.060000
    1744 H           25.3022    30.7200     1.9853 opls_140      1 RES        0.060000
    1745 H           25.9744    29.5869     3.1536 opls_140      1 RES        0.060000
    1746 H           25.3213    31.0924     3.7533 opls_140      1 RES        0.060000
    1747 C           22.6514    32.1885    26.3867 opls_135      1 RES       -0.180000
    1748 C           23.7406    31.6342    27.3056 opls_157      1 RES        0.145000
    1749 O           24.4398    32.5693    28.0960 opls_154      1 RES       -0.683000
    1750 H           23.8116    33.1629    28.4782 opls_155      1 RES        0.418000
    1751 H           24.4007    31.0720    26.6450 opls_140      1 RES        0.060000
    1752 H           23.3843    30.9030    28.0312 opls_140      1 RES        0.060000
    1753 H           21.8180    32.3223    27.0764 opls_140      1 RES        0.060000
    1754 H           22.3538    31.4466    25.6457 opls_140      1 RES        0.060000
    1755 H           22.8770    33.1026    25.8375 opls_140      1 RES        0.060000
    1756 C            5.8036    24.4642    19.1697 opls_135      1 RES       -0.180000
    1757 C            5.9022    25.1762    20.5193 opls_157      1 RES        0.145000
    1758 O            6.4704    26.4666    20.5154 opls_154      1 RES       -0.683000
    1759 H            6.0977    26.9525    19.7957 opls_155      1 RES        0.418000
    1760 H            6.4487    24.4831    21.1589 opls_140      1 RES        0.060000
    1761 H            4.9447    25.3209    21.0197 opls_140      1 RES        0.060000
    1762 H            4.9151    24.9221    18.7350 opls_140      1 RES        0.060000
    1763 H            5.5981    23.4024    19.3049 opls_140      1 RES        0.060000
    1764 H            6.6641    24.5315    18.5040 opls_140      1 RES        0.060000
    1765 C           24.3325     2.6249    29.9354 opls_135      1 RES       -0.180000
    1766 C           23.6143     2.9235    31.2518 opls_157      1 RES        0.145000
    1767 O           24.4102     3.3964    32.3152 opls_154      1 RES       -0.683000
    1768 H           24.9907     4.0615    31.9781 opls_155      1 RES        0.418000
    1769 H           23.0955     1.9977    31.5005 opls_140      1 RES        0.060000
    1770 H           22.8257     3.6717    31.1714 opls_140      1 RES        0.060000
    1771 H           24.4332     3.6192    29.5003 opls_140      1 RES        0.060000
    1772 H           23.6996     2.0346    29.2728 opls_140      1 RES        0.060000
    1773 H           25.2896     2.1065    29.9935 opls_140      1 RES        0.060000
    1774 C           14.1776     7.9354    23.3801 opls_135      1 RES       -0.180000
    1775 C           14.8486     7.8557    22.0085 opls_157      1 RES        0.145000
    1776 O           14.1721     8.4706    20.9350 opls_154      1 RES       -0.683000
    1777 H           13.8714     9.3195    21.2214 opls_155      1 RES        0.418000
    1778 H           15.0124     6.7911    21.8416 opls_140      1 RES        0.060000
    1779 H           15.8433     8.2998    21.9707 opls_140      1 RES        0.060000
    1780 H           14.4444     8.9406    23.7062 opls_140      1 RES        0.060000
    1781 H           14.6307     7.2290    24.0757 opls_140      1 RES        0.060000
    1782 H           13.1017     7.7653    23.4218 opls_140      1 RES        0.060000
    1783 C           13.6560    33.4584     9.9600 opls_135      1 RES       -0.180000
    1784 C           12.9315    33.1298    11.2657 opls_157      1 RES        0.145000
    1785 O           13.5408    33.5726    12.4577 opls_154      1 RES       -0.683000
    1786 H           13.8235    34.4656    12.3322 opls_155      1 RES        0.418000
    1787 H           12.7980    32.0483    11.2439 opls_140      1 RES        0.060000
    1788 H           11.9212    33.5338    11.3307 opls_140      1 RES        0.060000
    1789 H           13.3682    34.4967     9.7949 opls_140      1 RES        0.060000
    1790 H           13.2572    32.8678     9.1353 opls_140      1 RES        0.060000
    1791 H           14.7379    33.3273     9.9409 opls_140      1 RES        0.060000
    1792 C            7.5528    26.2982    24.6074 opls_135      1 RES       -0.180000
    1793 C            6.2511    27.0734    24.4011 opls_157      1 RES        0.145000
    1794 O            6.1699    27.8807    23.2480 opls_154      1 RES       -0.683000
    1795 H            6.4990    27.3840    22.5145 opls_155      1 RES        0.418000
    1796 H            6.1211    27.6459    25.3195 opls_140      1 RES        0.060000
    1797 H            5.3622    26.4459    24.3359 opls_140      1 RES        0.060000
    1798 H            7.4172    25.4445    23.9434 opls_140      1 RES        0.060000
    1799 H            7.6214    25.9186    25.6269 opls_140      1 RES        0.060000
    1800 H            8.4862    26.8249    24.4089 opls_140      1 RES        0.060000
    1801 C            6.8485    17.6087    33.7120 opls_135      1 RES       -0.180000
    1802 C            6.0779    17.8047    32.4061 opls_157      1 RES        0.145000
    1803 O            6.6508    18.6753    31.4563 opls_154      1 RES       -0.683000
    1804 H            7.5722    18.4765    31.3898 opls_155      1 RES        0.418000
    1805 H            5.0832    18.1247    32.7166 opls_140      1 RES        0.060000
    1806 H            5.9117    16.8867    31.8425 opls_140      1 RES        0.060000
    1807 H            7.6122    16.8880    33.4198 opls_140      1 RES        0.060000
    1808 H            6.2191    17.1382    34.4675 opls_140      1 RES        0.060000
    1809 H            7.2807    18.4951    34.1763 opls_140      1 RES        0.060000
    1810 C           21.1324    13.3854    29.3901 opls_135      1 RES       -0.180000
    1811 C           20.8070    13.1023    27.9232 opls_157      1 RES        0.145000
    1812 O           20.0597    14.0828    27.2388 opls_154      1 RES       -0.683000
    1813 H           20.4226    14.9304    27.4462 opls_155      1 RES        0.418000
    1814 H           20.3106    12.1320    27.9317 opls_140      1 RES        0.060000
    1815 H           21.6829    12.9614    27.2898 opls_140      1 RES        0.060000
    1816 H           21.9811    14.0644    29.3082 opls_140      1 RES        0.060000
    1817 H           21.4770    12.4817    29.8928 opls_140      1 RES        0.060000
    1818 H           20.3364    13.8003    30.0085 opls_140      1 RES        0.060000
    1819 C           31.5570    17.1668    14.8204 opls_135      1 RES       -0.180000
    1820 C           32.2273    15.9728    14.1401 opls_157      1 RES        0.145000
    1821 O           33.4674    16.2139    13.5138 opls_154      1 RES       -0.683000
    1822 H           33.9982    16.7338    14.0977 opls_155      1 RES        0.418000
    1823 H           31.4778    15.5928    13.4458 opls_140      1 RES        0.060000
    1824 H           32.4373    15.1373    14.8079 opls_140      1 RES        0.060000
    1825 H           32.0950    17.2212    15.7668 opls_140      1 RES        0.060000
    1826 H           30.5123    16.9503    15.0440 opls_140      1 RES        0.060000
    1827 H           31.5699    18.1183    14.2888 opls_140      1 RES        0.060000
    1828 C           22.5607    20.5765    18.0514 opls_135      1 RES       -0.180000
    1829 C           22.4374    19.2812    17.2483 opls_157      1 RES        0.145000
    1830 O           23.5165    18.9551    16.4014 opls_154      1 RES       -0.683000
    1831 H           24.3203    19.0940    16.8785 opls_155      1 RES        0.418000
    1832 H           21.4977    19.3805    16.7049 opls_140      1 RES        0.060000
    1833 H           22.3131    18.3866    17.8585 opls_140      1 RES        0.060000
    1834 H           23.1997    20.2708    18.8798 opls_140      1 RES        0.060000
    1835 H           21.5962    20.8696    18.4661 opls_140      1 RES        0.060000
    1836 H           22.9547    21.4511    17.5337 opls_140      1 RES        0.060000
    1837 C            7.5399    12.8827    13.3923 opls_135      1 RES       -0.180000
    1838 C            8.1673    13.9110    14.3340 opls_157      1 RES        0.145000
    1839 O            8.1149    13.6227    15.7133 opls_154      1 RES       -0.683000
    1840 H            8.3578    12.7178    15.8364 opls_155      1 RES        0.418000
    1841 H            7.6736    14.8507    14.0867 opls_140      1 RES        0.060000
    1842 H            9.2260    14.0964    14.1526 opls_140      1 RES        0.060000
    1843 H            8.3220    12.1263    13.3274 opls_140      1 RES        0.060000
    1844 H            7.4002    13.3027    12.3962 opls_140      1 RES        0.060000
    1845 H            6.5816    12.4542    13.6857 opls_140      1 RES        0.060000
    1846 C            9.7194     5.2997    25.6883 opls_135      1 RES       -0.180000
    1847 C            9.6715     4.5703    24.3453 opls_157      1 RES        0.145000
    1848 O            9.4395     5.3619    23.2018 opls_154      1 RES       -0.683000
    1849 H            9.9859     6.1309    23.2577 opls_155      1 RES        0.418000
    1850 H            8.9142     3.7975    24.4767 opls_140      1 RES        0.060000
    1851 H           10.5838     4.0272    24.0984 opls_140      1 RES        0.060000
    1852 H           10.7299     5.7084    25.6896 opls_140      1 RES        0.060000
    1853 H            9.6451     4.5945    26.5161 opls_140      1 RES        0.060000
    1854 H            8.9683     6.0689    25.8675 opls_140      1 RES        0.060000
    1855 C            3.4644    21.3261     5.8259 opls_135      1 RES       -0.180000
    1856 C            2.8827    20.7086     4.5539 opls_157      1 RES        0.145000
    1857 O            2.4792    19.3597     4.6310 opls_154      1 RES       -0.683000
    1858 H            1.9917    19.2415     5.4319 opls_155      1 RES        0.418000
    1859 H            3.6458    20.8713     3.7928 opls_140      1 RES        0.060000
    1860 H            1.9972    21.2180     4.1737 opls_140      1 RES        0.060000
    1861 H            2.5658    21.5626     6.3958 opls_140      1 RES        0.060000
    1862 H            3.9739    22.2639     5.6044 opls_140      1 RES        0.060000
    1863 H            4.1647    20.7208     6.4014 opls_140      1 RES        0.060000
    1864 C           31.0030    31.0875    31.1197 opls_135      1 RES       -0.180000
    1865 C           31.3833    29.9785    32.1012 opls_157      1 RES        0.145000
    1866 O           31.1649    30.2403    33.4694 opls_154      1 RES       -0.683000
    1867 H           30.3080    30.6273    33.5641 opls_155      1 RES        0.418000
    1868 H           32.4283    29.7602    31.8813 opls_140      1 RES        0.060000
    1869 H           30.8611    29.0361    31.9356 opls_140      1 RES        0.060000
    1870 H           29.9240    30.9578    31.0364 opls_140      1 RES        0.060000
    1871 H           31.4369    30.9022    30.1372 opls_140      1 RES        0.060000
    1872 H           31.2711    32.1089    31.3899 opls_140      1 RES        0.060000
    1873 C           29.8175    12.0248    19.8165 opls_135      1 RES       -0.180000
    1874 C           30.3989    13.3561    20.2934 opls_157      1 RES        0.145000
    1875 O           30.7678    13.4366    21.6519 opls_154      1 RES       -0.683000
    1876 H           31.2426    12.6512    21.8771 opls_155      1 RES        0.418000
    1877 H           29.6492    14.0991    20.0214 opls_140      1 RES        0.060000
    1878 H           31.3012    13.6649    19.7656 opls_140      1 RES        0.060000
    1879 H           30.7148    11.4228    19.6729 opls_140      1 RES        0.060000
    1880 H           29.3341    12.1375    18.8461 opls_140      1 RES        0.060000
    1881 H           29.0956    11.5317    20.4675 opls_140      1 RES        0.060000
    1882 C            6.2034    33.5919    33.9686 opls_135      1 RES       -0.180000
    1883 C            6.1048    33.6397    32.4436 opls_157      1 RES        0.145000
    1884 O            7.2135    34.1704    31.7528 opls_154      1 RES       -0.683000
    1885 H            7.9994    33.8000    32.1245 opls_155      1 RES        0.418000
    1886 H            5.1866    34.1915    32.2424 opls_140      1 RES        0.060000
    1887 H            5.9538    32.6675    31.9743 opls_140      1 RES        0.060000
    1888 H            6.8096    32.7005    34.1298 opls_140      1 RES        0.060000
    1889 H            5.2253    33.4141    34.4157 opls_140      1 RES        0.060000
    1890 H            6.6203    34.4648    34.4711 opls_140      1 RES        0.060000
    1891 C           30.7581    32.3044    15.1390 opls_135      1 RES       -0.180000
    1892 C           29.9075    32.6384    13.9131 opls_157      1 RES        0.145000
    1893 O           29.0517    33.7539    14.0199 opls_154      1 RES       -0.683000
    1894 H           29.5356    34.4618    14.4172 opls_155      1 RES        0.418000
    1895 H           29.3659    31.7185    13.6927 opls_140      1 RES        0.060000
    1896 H           30.4840    32.8450    13.0114 opls_140      1 RES        0.060000
    1897 H           31.5762    33.0191    15.0501 opls_140      1 RES        0.060000
    1898 H           31.1810    31.3031    15.0571 opls_140      1 RES        0.060000
    1899 H           30.2739    32.3581    16.1141 opls_140      1 RES        0.060000
    1900 C           10.8584     9.3150    13.1353 opls_135      1 RES       -0.180000
    1901 C           11.1238    10.1676    14.3764 opls_157      1 RES        0.145000
    1902 O           11.0671     9.5092    15.6220 opls_154      1 RES       -0.683000
    1903 H           11.5387     8.6937    15.5479 opls_155      1 RES        0.418000
    1904 H           10.4095    10.9880    14.3069 opls_140      1 RES        0.060000
    1905 H           12.1013    10.6497    14.3874 opls_140      1 RES        0.060000
    1906 H           11.8191     8.8214    12.9884 opls_140      1 RES        0.060000
    1907 H           10.6713     9.9438    12.2649 opls_140      1 RES        0.060000
    1908 H           10.0364     8.6008    13.1848 opls_140      1 RES        0.060000
    1909 C           11.7350     2.9947    18.7208 opls_135      1 RES       -0.180000
    1910 C           12.0487     4.0788    19.7524 opls_157      1 RES        0.145000
    1911 O           12.2300     5.3880    19.2613 opls_154      1 RES       -0.683000
    1912 H           11.5428     5.5688    18.6385 opls_155      1 RES        0.418000
    1913 H           12.9251     3.7093    20.2848 opls_140      1 RES        0.060000
    1914 H           11.2857     4.1986    20.5216 opls_140      1 RES        0.060000
    1915 H           10.6691     3.1450    18.5494 opls_140      1 RES        0.060000
    1916 H           11.8658     2.0011    19.1494 opls_140      1 RES        0.060000
    1917 H           12.3034     3.0089    17.7908 opls_140      1 RES        0.060000
    1918 C           23.2228    10.8826     7.1116 opls_135      1 RES       -0.180000
    1919 C           22.0824    10.7352     8.1194 opls_157      1 RES        0.145000
    1920 O           22.1668     9.6525     9.0187 opls_154      1 RES       -0.683000
    1921 H           23.0493     9.6144     9.3547 opls_155      1 RES        0.418000
    1922 H           21.1782    10.7013     7.5116 opls_140      1 RES        0.060000
    1923 H           21.9473    11.5982     8.7715 opls_140      1 RES        0.060000
    1924 H           23.9968    11.3607     7.7119 opls_140      1 RES        0.060000
    1925 H           22.9486    11.5717     6.3128 opls_140      1 RES        0.060000
    1926 H           23.5842     9.9750     6.6281 opls_140      1 RES        0.060000
    1927 C           17.0327    15.1058    16.4269 opls_135      1 RES       -0.180000
    1928 C           18.0567    15.7808    17.3400 opls_157      1 RES        0.145000
    1929 O           18.5822    17.0134    16.9013 opls_154      1 RES       -0.683000
    1930 H           17.8675    17.5446    16.5850 opls_155      1 RES        0.418000
    1931 H           18.8311    15.0288    17.4912 opls_140      1 RES        0.060000
    1932 H           17.6857    16.0035    18.3404 opls_140      1 RES        0.060000
    1933 H           16.1198    15.6512    16.6661 opls_140      1 RES        0.060000
    1934 H           16.8830    14.0650    16.7138 opls_140      1 RES        0.060000
    1935 H           17.2392    15.1061    15.3566 opls_140      1 RES        0.060000
    1936 C           15.3600    24.5419    17.0723 opls_135      1 RES       -0.180000
    1937 C           16.4708    23.8811    17.8891 opls_157      1 RES        0.145000
    1938 O           16.2502    23.7576    19.2762 opls_154      1 RES       -0.683000
    1939 H           15.3691    23.4430    19.4094 opls_155      1 RES        0.418000
    1940 H           17.3652    24.4607    17.6604 opls_140      1 RES        0.060000
    1941 H           16.7107    22.8644    17.5777 opls_140      1 RES        0.060000
    1942 H           14.6501    23.7240    16.9496 opls_140      1 RES        0.060000
    1943 H           15.7197    24.8211    16.0819 opls_140      1 RES        0.060000
    1944 H           14.8895    25.4304    17.4935 opls_140      1 RES        0.060000
    1945 C           20.8398     2.6286    27.9578 opls_135      1 RES       -0.180000
    1946 C           21.7349     3.7237    27.3771 opls_157      1 RES        0.145000
    1947 O           22.1324     4.7510    28.2573 opls_154      1 RES       -0.683000
    1948 H           22.4049     4.3551    29.0710 opls_155      1 RES        0.418000
    1949 H           21.1849     4.1037    26.5161 opls_140      1 RES        0.060000
    1950 H           22.6774     3.3606    26.9672 opls_140      1 RES        0.060000
    1951 H           21.5611     1.9938    28.4723 opls_140      1 RES        0.060000
    1952 H           20.3841     2.0376    27.1634 opls_140      1 RES        0.060000
    1953 H           20.0292     2.9412    28.6161 opls_140      1 RES        0.060000
    1954 C           13.8481    19.9370    33.5041 opls_135      1 RES       -0.180000
    1955 C           15.3234    19.5359    33.5250 opls_157      1 RES        0.145000
    1956 O           15.7007    18.5557    34.4658 opls_154      1 RES       -0.683000
    1957 H           15.0628    17.8590    34.4401 opls_155      1 RES        0.418000
    1958 H           15.8634    20.4728    33.6615 opls_140      1 RES        0.060000
    1959 H           15.6921    19.1371    32.5799 opls_140      1 RES        0.060000
    1960 H           13.3995    19.1253    32.9314 opls_140      1 RES        0.060000
    1961 H           13.7045    20.8595    32.9416 opls_140      1 RES        0.060000
    1962 H           13.3542    20.0794    34.4652 opls_140      1 RES        0.060000
    1963 C           14.5772     5.1154    25.5968 opls_135      1 RES       -0.180000
    1964 C           13.3217     5.3916    24.7689 opls_157      1 RES        0.145000
    1965 O           13.4774     5.4094    23.3677 opls_154      1 RES       -0.683000
    1966 H           14.0055     4.6664    23.1186 opls_155      1 RES        0.418000
    1967 H           12.9362     6.3346    25.1565 opls_140      1 RES        0.060000
    1968 H           12.5153     4.6753    24.9266 opls_140      1 RES        0.060000
    1969 H           14.6601     4.0306    25.5297 opls_140      1 RES        0.060000
    1970 H           14.4163     5.3723    26.6438 opls_140      1 RES        0.060000
    1971 H           15.4973     5.6143    25.2926 opls_140      1 RES        0.060000
    1972 C           27.4030    25.2186    21.1636 opls_135      1 RES       -0.180000
    1973 C           28.3170    25.9732    22.1296 opls_157      1 RES        0.145000
    1974 O           28.5102    25.3959    23.4014 opls_154      1 RES       -0.683000
    1975 H           28.6705    24.4717    23.2862 opls_155      1 RES        0.418000
    1976 H           27.8916    26.9750    22.1881 opls_140      1 RES        0.060000
    1977 H           29.3318    26.1226    21.7608 opls_140      1 RES        0.060000
    1978 H           28.0670    24.4440    20.7800 opls_140      1 RES        0.060000
    1979 H           27.1143    25.8536    20.3261 opls_140      1 RES        0.060000
    1980 H           26.4812    24.8014    21.5691 opls_140      1 RES        0.060000
    1981 C            3.0007    31.5720    30.0441 opls_135      1 RES       -0.180000
    1982 C            3.0238    30.0721    29.7483 opls_157      1 RES        0.145000
    1983 O            3.7585    29.6600    28.6176 opls_154      1 RES       -0.683000
    1984 H            4.5876    30.1134    28.6214 opls_155      1 RES        0.418000
    1985 H            1.9739    29.7852    29.6891 opls_140      1 RES        0.060000
    1986 H            3.4337    29.4634    30.5542 opls_140      1 RES        0.060000
    1987 H            3.9616    31.7218    30.5364 opls_140      1 RES        0.060000
    1988 H            2.2177    31.8141    30.7627 opls_140      1 RES        0.060000
    1989 H            2.8659    32.2471    29.1990 opls_140      1 RES        0.060000
    1990 C           24.6020    31.9357    12.0353 opls_135      1 RES       -0.180000
    1991 C           26.0177    32.4166    11.7152 opls_157      1 RES        0.145000
    1992 O           27.0777    31.5750    12.1104 opls_154      1 RES       -0.683000
    1993 H           26.8571    30.6879    11.8707 opls_155      1 RES        0.418000
    1994 H           26.0826    33.4067    12.1663 opls_140      1 RES        0.060000
    1995 H           26.2050    32.5812    10.6541 opls_140      1 RES        0.060000
    1996 H           24.4170    31.2218    11.2327 opls_140      1 RES        0.060000
    1997 H           23.8828    32.7480    11.9299 opls_140      1 RES        0.060000
    1998 H           24.4325    31.4967    13.0185 opls_140      1 RES        0.060000
    1999 C            6.0251    29.0557    32.0598 opls_135      1 RES       -0.180000
    2000 C            6.3786    29.4827    30.6349 opls_157      1 RES        0.145000
    2001 O            6.0121    28.5992    29.5989 opls_154      1 RES       -0.683000
    2002 H            5.1269    28.3082    29.7567 opls_155      1 RES        0.418000
    2003 H            7.4519    29.6711    30.6603 opls_140      1 RES        0.060000
    2004 H            5.9366    30.4310    30.3293 opls_140      1 RES        0.060000
    2005 H            4.9698    29.3215    32.1220 opls_140      1 RES        0.060000
    2006 H            6.5634    29.6590    32.7909 opls_140      1 RES        0.060000
    2007 H            6.1996    28.0138    32.3283 opls_140      1 RES        0.060000
    2008 C            6.0927    15.1553    10.4175 opls_135      1 RES       -0.180000
    2009 C            5.3146    14.8356    11.6942 opls_157      1 RES        0.145000
    2010 O            4.7275    13.5563    11.7755 opls_154      1 RES       -0.683000
    2011 H            5.3624    12.9197    11.4845 opls_155      1 RES        0.418000
    2012 H            4.5799    15.6364    11.7787 opls_140      1 RES        0.060000
    2013 H            5.9061    14.9030    12.6073 opls_140      1 RES        0.060000
    2014 H            7.0465    14.6609    10.6022 opls_140      1 RES        0.060000
    2015 H            6.2833    16.2254    10.3364 opls_140      1 RES        0.060000
    2016 H            5.6500    14.8462     9.4706 opls_140      1 RES        0.060000
    2017 C           27.9973    28.6663    20.1451 opls_135      1 RES       -0.180000
    2018 C           28.3644    27.7732    18.9596 opls_157      1 RES        0.145000
    2019 O           29.3150    28.2835    18.0518 opls_154      1 RES       -0.683000
    2020 H           30.0264    28.6592    18.5475 opls_155      1 RES        0.418000
    2021 H           27.4126    27.5443    18.4801 opls_140      1 RES        0.060000
    2022 H           28.7751    26.8034    19.2403 opls_140      1 RES        0.060000
    2023 H           28.8313    28.4953    20.8259 opls_140      1 RES        0.060000
    2024 H           27.0908    28.3096    20.6340 opls_140      1 RES        0.060000
    2025 H           27.8453    29.7269    19.9450 opls_140      1 RES        0.060000
    2026 C           17.7602    14.5769    12.0392 opls_135      1 RES       -0.180000
    2027 C           17.6029    16.0570    12.3894 opls_157      1 RES        0.145000
    2028 O           17.1753    16.9118    11.3528 opls_154      1 RES       -0.683000
    2029 H           16.4571    16.4948    10.9019 opls_155      1 RES        0.418000
    2030 H           18.5705    16.3496    12.7971 opls_140      1 RES        0.060000
    2031 H           16.8917    16.2537    13.1916 opls_140      1 RES        0.060000
    2032 H           16.7310    14.2212    12.0859 opls_140      1 RES        0.060000
    2033 H           18.3279    14.0540    12.8088 opls_140      1 RES        0.060000
    2034 H           18.2324    14.3351    11.0870 opls_140      1 RES        0.060000
    2035 C            3.7580    28.3182    21.5369 opls_135      1 RES       -0.180000
    2036 C            2.8744    27.2805    22.2299 opls_157      1 RES        0.145000
    2037 O            2.3355    27.6412    23.4819 opls_154      1 RES       -0.683000
    2038 H            1.9997    28.5222    23.4174 opls_155      1 RES        0.418000
    2039 H            3.4916    26.3838    22.2857 opls_140      1 RES        0.060000
    2040 H            1.9995    26.9809    21.6528 opls_140      1 RES        0.060000
    2041 H            3.0197    28.9880    21.0961 opls_140      1 RES        0.060000
    2042 H            4.3236    27.8650    20.7227 opls_140      1 RES        0.060000
    2043 H            4.4784    28.8549    22.1542 opls_140      1 RES        0.060000
    2044 C           21.9289    33.8262     8.9422 opls_135      1 RES       -0.180000
    2045 C           22.5626    32.5380     9.4681 opls_157      1 RES        0.145000
    2046 O           23.9716    32.4870     9.4887 opls_154      1 RES       -0.683000
    2047 H           24.2926    33.3028     9.8413 opls_155      1 RES        0.418000
    2048 H           22.1268    31.7461     8.8589 opls_140      1 RES        0.060000
    2049 H           22.2836    32.2875    10.4916 opls_140      1 RES        0.060000
    2050 H           22.0022    34.4857     9.8070 opls_140      1 RES        0.060000
    2051 H           20.8708    33.6784     8.7258 opls_140      1 RES        0.060000
    2052 H           22.3686    34.2729     8.0505 opls_140      1 RES        0.060000
    2053 C            8.4679    10.3750    11.1576 opls_135      1 RES       -0.180000
    2054 C            9.0614     9.3812    10.1586 opls_157      1 RES        0.145000
    2055 O            8.8773     9.6707     8.7909 opls_154      1 RES       -0.683000
    2056 H            9.0648    10.5867     8.6539 opls_155      1 RES        0.418000
    2057 H            8.6366     8.4178    10.4405 opls_140      1 RES        0.060000
    2058 H           10.1394     9.2470    10.2477 opls_140      1 RES        0.060000
    2059 H            9.2153    11.1684    11.1609 opls_140      1 RES        0.060000
    2060 H            8.4345     9.9458    12.1590 opls_140      1 RES        0.060000
    2061 H            7.4685    10.7572    10.9502 opls_140      1 RES        0.060000
    2062 C            7.0677     7.0518     3.3333 opls_135      1 RES       -0.180000
    2063 C            7.4748     5.6456     3.7745 opls_157      1 RES        0.145000
    2064 O            8.2611     5.5498     4.9410 opls_154      1 RES       -0.683000
    2065 H            7.8885     6.1187     5.5972 opls_155      1 RES        0.418000
    2066 H            7.9684     5.2141     2.9038 opls_140      1 RES        0.060000
    2067 H            6.6358     4.9800     3.9774 opls_140      1 RES        0.060000
    2068 H            6.2260     7.2628     3.9930 opls_140      1 RES        0.060000
    2069 H            6.6938     7.0446     2.3094 opls_140      1 RES        0.060000
    2070 H            7.8281     7.8313     3.3805 opls_140      1 RES        0.060000
    2071 C           13.4174    11.3737    18.8785 opls_135      1 RES       -0.180000
    2072 C           12.7501    10.5766    17.7573 opls_157      1 RES        0.145000
    2073 O           12.1197     9.3703    18.1254 opls_154      1 RES       -0.683000
    2074 H           11.6116     9.5276    18.9065 opls_155      1 RES        0.418000
    2075 H           13.5370    10.4259    17.0183 opls_140      1 RES        0.060000
    2076 H           11.9691    11.1202    17.2256 opls_140      1 RES        0.060000
    2077 H           12.5676    11.8836    19.3324 opls_140      1 RES        0.060000
    2078 H           14.0828    12.1348    18.4710 opls_140      1 RES        0.060000
    2079 H           13.9976    10.8152    19.6131 opls_140      1 RES        0.060000
    2080 C           28.9630    24.4985    26.6322 opls_135      1 RES       -0.180000
    2081 C           30.3853    23.9390    26.5924 opls_157      1 RES        0.145000
    2082 O           31.1907    24.1729    27.7259 opls_154      1 RES       -0.683000
    2083 H           30.6759    23.9926    28.4976 opls_155      1 RES        0.418000
    2084 H           30.8197    24.3511    25.6815 opls_140      1 RES        0.060000
    2085 H           30.4374    22.8581    26.4614 opls_140      1 RES        0.060000
    2086 H           28.4419    23.7534    27.2334 opls_140      1 RES        0.060000
    2087 H           28.5162    24.4949    25.6380 opls_140      1 RES        0.060000
    2088 H           28.8319    25.5058    27.0277 opls_140      1 RES        0.060000
    2089 C            6.4639    21.9009    32.3303 opls_135      1 RES       -0.180000
    2090 C            6.3704    22.8193    33.5492 opls_157      1 RES        0.145000
    2091 O            5.1994    22.7215    34.3285 opls_154      1 RES       -0.683000
    2092 H            5.0068    21.8058    34.4604 opls_155      1 RES        0.418000
    2093 H            6.5230    23.8229    33.1522 opls_140      1 RES        0.060000
    2094 H            7.1718    22.6822    34.2752 opls_140      1 RES        0.060000
    2095 H            6.7675    20.9556    32.7802 opls_140      1 RES        0.060000
    2096 H            7.2627    22.2226    31.6620 opls_140      1 RES        0.060000
    2097 H            5.5703    21.7917    31.7159 opls_140      1 RES        0.060000
    2098 C           10.3257    27.8263    28.0426 opls_135      1 RES       -0.180000
    2099 C           11.0618    28.8197    27.1431 opls_157      1 RES        0.145000
    2100 O           12.1099    28.3040    26.3534 opls_154      1 RES       -0.683000
    2101 H           11.8142    27.4983    25.9578 opls_155      1 RES        0.418000
    2102 H           11.3981    29.6075    27.8172 opls_140      1 RES        0.060000
    2103 H           10.4232    29.3263    26.4195 opls_140      1 RES        0.060000
    2104 H            9.6440    27.3456    27.3410 opls_140      1 RES        0.060000
    2105 H            9.7236    28.3482    28.7863 opls_140      1 RES        0.060000
    2106 H           10.9300    27.1003    28.5864 opls_140      1 RES        0.060000
    2107 C           23.4954    11.2004    11.3996 opls_135      1 RES       -0.180000
    2108 C           24.7227    11.4315    10.5175 opls_157      1 RES        0.145000
    2109 O           24.6148    12.4327     9.5306 opls_154      1 RES       -0.683000
    2110 H           24.2138    13.1934     9.9226 opls_155      1 RES        0.418000
    2111 H           24.9478    10.4527    10.0939 opls_140      1 RES        0.060000
    2112 H           25.6220    11.7108    11.0665 opls_140      1 RES        0.060000
    2113 H           23.5795    12.0107    12.1238 opls_140      1 RES        0.060000
    2114 H           23.5793    10.2591    11.9429 opls_140      1 RES        0.060000
    2115 H           22.5216    11.1905    10.9101 opls_140      1 RES        0.060000
    2116 C           22.6428     5.3160    33.3233 opls_135      1 RES       -0.180000
    2117 C           21.4083     6.0584    32.8106 opls_157      1 RES        0.145000
    2118 O           20.1534     5.5402    33.1910 opls_154      1 RES       -0.683000
    2119 H           20.1841     5.3363    34.1132 opls_155      1 RES        0.418000
    2120 H           21.5341     6.0906    31.7283 opls_140      1 RES        0.060000
    2121 H           21.3557     7.1034    33.1161 opls_140      1 RES        0.060000
    2122 H           22.7271     5.6915    34.3431 opls_140      1 RES        0.060000
    2123 H           23.5357     5.6258    32.7802 opls_140      1 RES        0.060000
    2124 H           22.6217     4.2267    33.2903 opls_140      1 RES        0.060000
    2125 C           17.2847    11.1624    11.8386 opls_135      1 RES       -0.180000
    2126 C           18.2172    11.3278    10.6382 opls_157      1 RES        0.145000
    2127 O           17.7031    12.0281     9.5276 opls_154      1 RES       -0.683000
    2128 H           17.2622    12.8020     9.8434 opls_155      1 RES        0.418000
    2129 H           18.5244    10.3133    10.3841 opls_140      1 RES        0.060000
    2130 H           19.1462    11.8522    10.8623 opls_140      1 RES        0.060000
    2131 H           17.3722    12.1313    12.3302 opls_140      1 RES        0.060000
    2132 H           17.6654    10.4059    12.5248 opls_140      1 RES        0.060000
    2133 H           16.2464    10.9014    11.6338 opls_140      1 RES        0.060000
    2134 C           21.6608    25.2884     7.1927 opls_135      1 RES       -0.180000
    2135 C           21.8848    24.0735     6.2917 opls_157      1 RES        0.145000
    2136 O           21.8740    24.3050     4.9009 opls_154      1 RES       -0.683000
    2137 H           22.3912    25.0760     4.7247 opls_155      1 RES        0.418000
    2138 H           21.1240    23.3562     6.5997 opls_140      1 RES        0.060000
    2139 H           22.8330    23.5622     6.4576 opls_140      1 RES        0.060000
    2140 H           22.6473    25.7520     7.1993 opls_140      1 RES        0.060000
    2141 H           21.4323    24.9787     8.2125 opls_140      1 RES        0.060000
    2142 H           20.8816    25.9921     6.9000 opls_140      1 RES        0.060000
    2143 C           16.8069     2.8140     7.2284 opls_135      1 RES       -0.180000
    2144 C           16.2016     3.5148     6.0117 opls_157      1 RES        0.145000
    2145 O           16.4563     2.9329     4.7529 opls_154      1 RES       -0.683000
    2146 H           16.3242     2.0000     4.8254 opls_155      1 RES        0.418000
    2147 H           16.5620     4.5415     6.0757 opls_140      1 RES        0.060000
    2148 H           15.1152     3.5989     6.0384 opls_140      1 RES        0.060000
    2149 H           16.1040     1.9975     7.3940 opls_140      1 RES        0.060000
    2150 H           16.7766     3.4616     8.1046 opls_140      1 RES        0.060000
    2151 H           17.8331     2.4571     7.1415 opls_140      1 RES        0.060000
    2152 C            2.6274    31.5032    19.4289 opls_135      1 RES       -0.180000
    2153 C            2.8679    31.8854    17.9681 opls_157      1 RES        0.145000
    2154 O            3.1283    33.2456    17.7032 opls_154      1 RES       -0.683000
    2155 H            3.7520    33.5576    18.3408 opls_155      1 RES        0.418000
    2156 H            1.9888    31.5193    17.4377 opls_140      1 RES        0.060000
    2157 H            3.7083    31.3698    17.5034 opls_140      1 RES        0.060000
    2158 H            3.6432    31.4494    19.8205 opls_140      1 RES        0.060000
    2159 H            2.1895    30.5077    19.5029 opls_140      1 RES        0.060000
    2160 H            1.9963    32.1648    20.0223 opls_140      1 RES        0.060000
    2161 C           13.1310    22.3939    18.4760 opls_135      1 RES       -0.180000
    2162 C           12.1668    21.6549    19.4045 opls_157      1 RES        0.145000
    2163 O           12.7157    21.1047    20.5809 opls_154      1 RES       -0.683000
    2164 H           13.2849    21.7496    20.9722 opls_155      1 RES        0.418000
    2165 H           11.6970    20.9010    18.7728 opls_140      1 RES        0.060000
    2166 H           11.3412    22.2657    19.7700 opls_140      1 RES        0.060000
    2167 H           13.2180    23.3647    18.9640 opls_140      1 RES        0.060000
    2168 H           12.6811    22.5535    17.4962 opls_140      1 RES        0.060000
    2169 H           14.1051    21.9375    18.2997 opls_140      1 RES        0.060000
    2170 C           25.0559     8.3728    11.8133 opls_135      1 RES       -0.180000
    2171 C           26.1034     7.2608    11.7500 opls_157      1 RES        0.145000
    2172 O           26.6416     6.9682    10.4801 opls_154      1 RES       -0.683000
    2173 H           26.8498     7.7841    10.0512 opls_155      1 RES        0.418000
    2174 H           25.6185     6.3971    12.2051 opls_140      1 RES        0.060000
    2175 H           26.9851     7.4412    12.3650 opls_140      1 RES        0.060000
    2176 H           25.6749     9.2698    11.8000 opls_140      1 RES        0.060000
    2177 H           24.5230     8.3507    12.7639 opls_140      1 RES        0.060000
    2178 H           24.2961     8.3901    11.0319 opls_140      1 RES        0.060000
    2179 C           33.4165    27.4783    31.8096 opls_135      1 RES       -0.180000
    2180 C           32.9092    27.5785    30.3707 opls_157      1 RES        0.145000
    2181 O           32.3134    26.4222    29.8264 opls_154      1 RES       -0.683000
    2182 H           31.7223    26.0625    30.4699 opls_155      1 RES        0.418000
    2183 H           33.7729    27.9114    29.7950 opls_140      1 RES        0.060000
    2184 H           32.1560    28.3508    30.2146 opls_140      1 RES        0.060000
    2185 H           32.4988    27.6051    32.3839 opls_140      1 RES        0.060000
    2186 H           34.0758    28.3130    32.0480 opls_140      1 RES        0.060000
    2187 H           33.9509    26.5707    32.0901 opls_140      1 RES        0.060000
    2188 C           10.5040    14.6592    18.8486 opls_135      1 RES       -0.180000
    2189 C            9.1842    14.0568    18.3655 opls_157      1 RES        0.145000
    2190 O            8.3745    14.8746    17.5509 opls_154      1 RES       -0.683000
    2191 H            8.9257    15.2859    16.9028 opls_155      1 RES        0.418000
    2192 H            8.6741    13.7414    19.2756 opls_140      1 RES        0.060000
    2193 H            9.2968    13.1449    17.7791 opls_140      1 RES        0.060000
    2194 H           11.1451    14.5321    17.9763 opls_140      1 RES        0.060000
    2195 H           10.9266    14.0676    19.6607 opls_140      1 RES        0.060000
    2196 H           10.4858    15.6927    19.1942 opls_140      1 RES        0.060000
    2197 C           23.8773    13.9483    31.0791 opls_135      1 RES       -0.180000
    2198 C           24.9905    13.5770    32.0594 opls_157      1 RES        0.145000
    2199 O           24.7551    13.8558    33.4213 opls_154      1 RES       -0.683000
    2200 H           23.8786    13.5741    33.6344 opls_155      1 RES        0.418000
    2201 H           25.8763    14.0849    31.6780 opls_140      1 RES        0.060000
    2202 H           25.2536    12.5192    32.0576 opls_140      1 RES        0.060000
    2203 H           23.1848    13.1145    31.1945 opls_140      1 RES        0.060000
    2204 H           24.2438    13.9364    30.0527 opls_140      1 RES        0.060000
    2205 H           23.3847    14.9101    31.2217 opls_140      1 RES        0.060000
    2206 C           19.4178    28.3583    31.9937 opls_135      1 RES       -0.180000
    2207 C           20.7905    28.8970    32.3980 opls_157      1 RES        0.145000
    2208 O           21.0622    28.9674    33.7798 opls_154      1 RES       -0.683000
    2209 H           20.7795    28.1589    34.1791 opls_155      1 RES        0.418000
    2210 H           20.8612    29.8692    31.9103 opls_140      1 RES        0.060000
    2211 H           21.6298    28.3252    32.0021 opls_140      1 RES        0.060000
    2212 H           19.5602    27.2814    32.0840 opls_140      1 RES        0.060000
    2213 H           19.2067    28.5791    30.9474 opls_140      1 RES        0.060000
    2214 H           18.5560    28.7049    32.5641 opls_140      1 RES        0.060000
    2215 C           26.0630     6.2848    16.3218 opls_135      1 RES       -0.180000
    2216 C           25.2781     6.9746    15.2056 opls_157      1 RES        0.145000
    2217 O           25.8551     8.1339    14.6477 opls_154      1 RES       -0.683000
    2218 H           26.7713     7.9631    14.4912 opls_155      1 RES        0.418000
    2219 H           24.2947     7.1651    15.6353 opls_140      1 RES        0.060000
    2220 H           25.0854     6.3433    14.3381 opls_140      1 RES        0.060000
    2221 H           26.8077     5.7199    15.7610 opls_140      1 RES        0.060000
    2222 H           25.4350     5.5701    16.8537 opls_140      1 RES        0.060000
    2223 H           26.5197     6.9211    17.0798 opls_140      1 RES        0.060000
    2224 C           12.0711    24.0509     8.0564 opls_135      1 RES       -0.180000
    2225 C           11.8539    25.4529     7.4862 opls_157      1 RES        0.145000
    2226 O           10.5640    26.0036     7.6315 opls_154      1 RES       -0.683000
    2227 H           10.2724    25.8461     8.5164 opls_155      1 RES        0.418000
    2228 H           12.1587    25.3777     6.4424 opls_140      1 RES        0.060000
    2229 H           12.5059    26.2152     7.9126 opls_140      1 RES        0.060000
    2230 H           12.2102    24.2559     9.1179 opls_140      1 RES        0.060000
    2231 H           12.9964    23.6167     7.6777 opls_140      1 RES        0.060000
    2232 H           11.2880    23.3129     7.8829 opls_140      1 RES        0.060000
    2233 C           17.8611    28.4610    19.9704 opls_135      1 RES       -0.180000
    2234 C           19.2350    28.7245    20.5873 opls_157      1 RES        0.145000
    2235 O           19.7456    30.0329    20.4628 opls_154      1 RES       -0.683000
    2236 H           19.0537    30.6422    20.6702 opls_155      1 RES        0.418000
    2237 H           19.8891    27.9783    20.1363 opls_140      1 RES        0.060000
    2238 H           19.2889    28.5310    21.6587 opls_140      1 RES        0.060000
    2239 H           17.1897    28.8622    20.7296 opls_140      1 RES        0.060000
    2240 H           17.6703    27.3908    19.8900 opls_140      1 RES        0.060000
    2241 H           17.6642    28.8862    18.9862 opls_140      1 RES        0.060000
    2242 C            6.9704    21.0617    25.7147 opls_135      1 RES       -0.180000
    2243 C            6.5219    19.6243    25.4492 opls_157      1 RES        0.145000
    2244 O            5.4178    19.4533    24.5889 opls_154      1 RES       -0.683000
    2245 H            5.5368    20.0155    23.8387 opls_155      1 RES        0.418000
    2246 H            6.3475    19.2012    26.4385 opls_140      1 RES        0.060000
    2247 H            7.2902    18.9904    25.0066 opls_140      1 RES        0.060000
    2248 H            7.5524    21.2874    24.8212 opls_140      1 RES        0.060000
    2249 H            7.6443    21.1065    26.5703 opls_140      1 RES        0.060000
    2250 H            6.1926    21.8042    25.8930 opls_140      1 RES        0.060000
    2251 C            9.3072     9.2519    17.5138 opls_135      1 RES       -0.180000
    2252 C            8.9190    10.1017    16.3034 opls_157      1 RES        0.145000
    2253 O            8.9448     9.4637    15.0463 opls_154      1 RES       -0.683000
    2254 H            8.5295     8.6194    15.1337 opls_155      1 RES        0.418000
    2255 H            9.5841    10.9642    16.3457 opls_140      1 RES        0.060000
    2256 H            7.9145    10.5218    16.3554 opls_140      1 RES        0.060000
    2257 H            8.3888     8.6974    17.7067 opls_140      1 RES        0.060000
    2258 H            9.5047     9.8803    18.3823 opls_140      1 RES        0.060000
    2259 H           10.1675     8.5913    17.4066 opls_140      1 RES        0.060000
    2260 C           27.5291    26.6251    16.1662 opls_135      1 RES       -0.180000
    2261 C           27.7124    26.2139    14.7050 opls_157      1 RES        0.145000
    2262 O           27.3159    24.9055    14.3600 opls_154      1 RES       -0.683000
    2263 H           26.4741    24.7370    14.7549 opls_155      1 RES        0.418000
    2264 H           28.7662    26.3979    14.4955 opls_140      1 RES        0.060000
    2265 H           27.1737    26.8394    13.9933 opls_140      1 RES        0.060000
    2266 H           26.4677    26.8703    16.2024 opls_140      1 RES        0.060000
    2267 H           28.0880    27.5345    16.3868 opls_140      1 RES        0.060000
    2268 H           27.8058    25.8978    16.9296 opls_140      1 RES        0.060000
    2269 C           22.4864     8.6761     4.7861 opls_135      1 RES       -0.180000
    2270 C           21.4906     8.4042     5.9141 opls_157      1 RES        0.145000
    2271 O           21.0045     7.0854     6.0265 opls_154      1 RES       -0.683000
    2272 H           21.7349     6.4919     5.9413 opls_155      1 RES        0.418000
    2273 H           20.6921     9.1299     5.7597 opls_140      1 RES        0.060000
    2274 H           21.8743     8.6202     6.9112 opls_140      1 RES        0.060000
    2275 H           23.4184     8.3022     5.2100 opls_140      1 RES        0.060000
    2276 H           22.6026     9.7471     4.6204 opls_140      1 RES        0.060000
    2277 H           22.2742     8.2327     3.8132 opls_140      1 RES        0.060000
    2278 C           30.8990    30.8783    19.9309 opls_135      1 RES       -0.180000
    2279 C           31.7465    30.7122    18.6692 opls_157      1 RES        0.145000
    2280 O           33.0115    31.3351    18.6686 opls_154      1 RES       -0.683000
    2281 H           33.4295    31.1582    19.4975 opls_155      1 RES        0.418000
    2282 H           31.1089    31.0652    17.8587 opls_140      1 RES        0.060000
    2283 H           31.9724    29.6766    18.4151 opls_140      1 RES        0.060000
    2284 H           31.3349    30.1343    20.5977 opls_140      1 RES        0.060000
    2285 H           29.8641    30.5915    19.7442 opls_140      1 RES        0.060000
    2286 H           30.8693    31.8676    20.3877 opls_140      1 RES        0.060000
    2287 C            5.3434     4.5074    26.1247 opls_135      1 RES       -0.180000
    2288 C            4.0633     3.8428    25.6172 opls_157      1 RES        0.145000
    2289 O            2.8894     4.6233    25.6456 opls_154      1 RES       -0.683000
    2290 H            3.0956     5.4811    25.3069 opls_155      1 RES        0.418000
    2291 H            3.9711     2.9316    26.2083 opls_140      1 RES        0.060000
    2292 H            4.1165     3.5001    24.5838 opls_140      1 RES        0.060000
    2293 H            5.6457     5.1054    25.2650 opls_140      1 RES        0.060000
    2294 H            6.1216     3.7654    26.3036 opls_140      1 RES        0.060000
    2295 H            5.2707     5.1061    27.0326 opls_140      1 RES        0.060000
    2296 C            2.8331     6.9555    31.6065 opls_135      1 RES       -0.180000
    2297 C            4.1767     7.6312    31.3311 opls_157      1 RES        0.145000
    2298 O            4.1460     9.0123    31.0491 opls_154      1 RES       -0.683000
    2299 H            3.5712     9.4295    31.6725 opls_155      1 RES        0.418000
    2300 H            4.6176     7.0510    30.5205 opls_140      1 RES        0.060000
    2301 H            4.8923     7.5542    32.1498 opls_140      1 RES        0.060000
    2302 H            2.6503     7.2272    32.6462 opls_140      1 RES        0.060000
    2303 H            2.9267     5.8706    31.5580 opls_140      1 RES        0.060000
    2304 H            1.9961     7.2240    30.9618 opls_140      1 RES        0.060000
    2305 C           32.4439     8.0662    28.6589 opls_135      1 RES       -0.180000
    2306 C           31.4181     6.9945    28.2884 opls_157      1 RES        0.145000
    2307 O           30.3502     7.3981    27.4609 opls_154      1 RES       -0.683000
    2308 H           30.7018     7.9225    26.7577 opls_155      1 RES        0.418000
    2309 H           31.0763     6.5962    29.2437 opls_140      1 RES        0.060000
    2310 H           31.8374     6.1365    27.7629 opls_140      1 RES        0.060000
    2311 H           33.0677     8.1027    27.7658 opls_140      1 RES        0.060000
    2312 H           33.0693     7.7350    29.4879 opls_140      1 RES        0.060000
    2313 H           32.0635     9.0507    28.9311 opls_140      1 RES        0.060000
    2314 C           25.1982    14.8580    25.2274 opls_135      1 RES       -0.180000
    2315 C           24.6293    13.5940    25.8729 opls_157      1 RES        0.145000
    2316 O           25.0178    12.3627    25.3062 opls_154      1 RES       -0.683000
    2317 H           25.9498    12.3883    25.1518 opls_155      1 RES        0.418000
    2318 H           23.5489    13.7368    25.8565 opls_140      1 RES        0.060000
    2319 H           24.8791    13.4791    26.9277 opls_140      1 RES        0.060000
    2320 H           26.1981    14.9038    25.6588 opls_140      1 RES        0.060000
    2321 H           24.6528    15.7420    25.5579 opls_140      1 RES        0.060000
    2322 H           25.2218    14.8969    24.1384 opls_140      1 RES        0.060000
    2323 C           29.6617    30.0543    27.4626 opls_135      1 RES       -0.180000
    2324 C           29.6687    28.8721    28.4322 opls_157      1 RES        0.145000
    2325 O           29.3530    29.1533    29.7773 opls_154      1 RES       -0.683000
    2326 H           28.5977    29.7210    29.7921 opls_155      1 RES        0.418000
    2327 H           30.6583    28.4287    28.3214 opls_140      1 RES        0.060000
    2328 H           28.9748    28.0736    28.1692 opls_140      1 RES        0.060000
    2329 H           28.5983    30.1711    27.2537 opls_140      1 RES        0.060000
    2330 H           30.1573    29.7927    26.5277 opls_140      1 RES        0.060000
    2331 H           30.1147    30.9849    27.8043 opls_140      1 RES        0.060000
    2332 C           25.8051    15.1132     8.1750 opls_135      1 RES       -0.180000
    2333 C           26.5120    14.6541     9.4507 opls_157      1 RES        0.145000
    2334 O           27.8075    15.1631     9.6759 opls_154      1 RES       -0.683000
    2335 H           27.7969    16.0908     9.4966 opls_155      1 RES        0.418000
    2336 H           26.4960    13.5654     9.3998 opls_140      1 RES        0.060000
    2337 H           25.9792    14.8979    10.3698 opls_140      1 RES        0.060000
    2338 H           25.4361    16.0981     8.4609 opls_140      1 RES        0.060000
    2339 H           24.9412    14.4836     7.9617 opls_140      1 RES        0.060000
    2340 H           26.3964    15.1492     7.2600 opls_140      1 RES        0.060000
    2341 C            6.1570    26.6571    17.0290 opls_135      1 RES       -0.180000
    2342 C            6.5417    27.1153    15.6219 opls_157      1 RES        0.145000
    2343 O            7.7680    26.6401    15.1135 opls_154      1 RES       -0.683000
    2344 H            7.8277    25.7155    15.2992 opls_155      1 RES        0.418000
    2345 H            6.5032    28.2037    15.6647 opls_140      1 RES        0.060000
    2346 H            5.8226    26.8413    14.8499 opls_140      1 RES        0.060000
    2347 H            5.7642    25.6574    16.8435 opls_140      1 RES        0.060000
    2348 H            5.3444    27.2650    17.4268 opls_140      1 RES        0.060000
    2349 H            6.9410    26.6531    17.7862 opls_140      1 RES        0.060000
    2350 C           18.8956    19.7636    18.4268 opls_135      1 RES       -0.180000
    2351 C           19.6702    18.9161    19.4365 opls_157      1 RES        0.145000
    2352 O           19.9656    17.5905    19.0575 opls_154      1 RES       -0.683000
    2353 H           20.2821    17.6003    18.1671 opls_155      1 RES        0.418000
    2354 H           19.0789    18.9651    20.3508 opls_140      1 RES        0.060000
    2355 H           20.6425    19.3251    19.7114 opls_140      1 RES        0.060000
    2356 H           19.6814    20.0700    17.7363 opls_140      1 RES        0.060000
    2357 H           18.4982    20.6625    18.8981 opls_140      1 RES        0.060000
    2358 H           18.0613    19.2891    17.9103 opls_140      1 RES        0.060000
    2359 C           15.6083    24.5823    22.1738 opls_135      1 RES       -0.180000
    2360 C           14.2023    24.7963    21.6125 opls_157      1 RES        0.145000
    2361 O           14.0816    25.6895    20.5282 opls_154      1 RES       -0.683000
    2362 H           14.7705    25.4999    19.9098 opls_155      1 RES        0.418000
    2363 H           13.6046    25.1018    22.4713 opls_140      1 RES        0.060000
    2364 H           13.7227    23.8876    21.2486 opls_140      1 RES        0.060000
    2365 H           16.0322    23.8738    21.4622 opls_140      1 RES        0.060000
    2366 H           15.5677    24.0923    23.1466 opls_140      1 RES        0.060000
    2367 H           16.2381    25.4635    22.2962 opls_140      1 RES        0.060000
    2368 C           31.5882     8.4352    23.0655 opls_135      1 RES       -0.180000
    2369 C           32.3440     9.6119    23.6834 opls_157      1 RES        0.145000
    2370 O           32.1025     9.8747    25.0475 opls_154      1 RES       -0.683000
    2371 H           32.1217     9.0539    25.5155 opls_155      1 RES        0.418000
    2372 H           32.1008    10.4625    23.0468 opls_140      1 RES        0.060000
    2373 H           33.4292     9.5248    23.6291 opls_140      1 RES        0.060000
    2374 H           32.1811     7.5834    23.3988 opls_140      1 RES        0.060000
    2375 H           31.6385     8.4698    21.9772 opls_140      1 RES        0.060000
    2376 H           30.5351     8.3251    23.3242 opls_140      1 RES        0.060000
    2377 C           26.9378    23.2727    18.4000 opls_135      1 RES       -0.180000
    2378 C           25.8331    22.9630    17.3892 opls_157      1 RES        0.145000
    2379 O           24.5093    22.9697    17.8747 opls_154      1 RES       -0.683000
    2380 H           24.3969    23.7345    18.4183 opls_155      1 RES        0.418000
    2381 H           26.1131    22.0015    16.9586 opls_140      1 RES        0.060000
    2382 H           25.7972    23.6477    16.5419 opls_140      1 RES        0.060000
    2383 H           26.8974    24.3605    18.4552 opls_140      1 RES        0.060000
    2384 H           27.9150    22.9959    18.0043 opls_140      1 RES        0.060000
    2385 H           26.8595    22.8112    19.3844 opls_140      1 RES        0.060000
    2386 C           15.9017     3.0403    27.9472 opls_135      1 RES       -0.180000
    2387 C           16.8726     2.9559    26.7690 opls_157      1 RES        0.145000
    2388 O           18.2241     2.6992    27.0783 opls_154      1 RES       -0.683000
    2389 H           18.2551     2.0024    27.7158 opls_155      1 RES        0.418000
    2390 H           16.7400     3.8957    26.2329 opls_140      1 RES        0.060000
    2391 H           16.6265     2.1829    26.0410 opls_140      1 RES        0.060000
    2392 H           15.7167     1.9886    28.1657 opls_140      1 RES        0.060000
    2393 H           14.9562     3.4873    27.6400 opls_140      1 RES        0.060000
    2394 H           16.2318     3.5882    28.8298 opls_140      1 RES        0.060000
    2395 C           24.6397    33.3841     6.6539 opls_135      1 RES       -0.180000
    2396 C           25.7122    33.6143     5.5887 opls_157      1 RES        0.145000
    2397 O           25.2601    33.8447     4.2731 opls_154      1 RES       -0.683000
    2398 H           24.5459    34.4624     4.3091 opls_155      1 RES        0.418000
    2399 H           26.3631    32.7427     5.6580 opls_140      1 RES        0.060000
    2400 H           26.3642    34.4651     5.7867 opls_140      1 RES        0.060000
    2401 H           24.3176    34.4014     6.8762 opls_140      1 RES        0.060000
    2402 H           25.0769    32.9680     7.5616 opls_140      1 RES        0.060000
    2403 H           23.8015    32.7396     6.3894 opls_140      1 RES        0.060000
    2404 C           26.3620    31.2306    29.4530 opls_135      1 RES       -0.180000
    2405 C           26.1790    30.2463    30.6086 opls_157      1 RES        0.145000
    2406 O           27.0825    30.3575    31.6854 opls_154      1 RES       -0.683000
    2407 H           27.1701    31.2723    31.9055 opls_155      1 RES        0.418000
    2408 H           26.2083    29.2619    30.1413 opls_140      1 RES        0.060000
    2409 H           25.2021    30.2974    31.0894 opls_140      1 RES        0.060000
    2410 H           25.8844    32.1299    29.8421 opls_140      1 RES        0.060000
    2411 H           25.8001    30.9089    28.5761 opls_140      1 RES        0.060000
    2412 H           27.3804    31.4232    29.1157 opls_140      1 RES        0.060000
    2413 C            3.5144    21.2941    20.7944 opls_135      1 RES       -0.180000
    2414 C            3.8937    22.5697    21.5472 opls_157      1 RES        0.145000
    2415 O            3.8518    22.5112    22.9554 opls_154      1 RES       -0.683000
    2416 H            4.2642    21.7069    23.2310 opls_155      1 RES        0.418000
    2417 H            3.2329    23.3367    21.1431 opls_140      1 RES        0.060000
    2418 H            4.9005    22.9306    21.3370 opls_140      1 RES        0.060000
    2419 H            4.4322    20.7097    20.8596 opls_140      1 RES        0.060000
    2420 H            3.3289    21.5052    19.7413 opls_140      1 RES        0.060000
    2421 H            2.6500    20.7373    21.1563 opls_140      1 RES        0.060000
    2422 C           27.8179    12.5527    16.0497 opls_135      1 RES       -0.180000
    2423 C           28.2774    11.1822    15.5514 opls_157      1 RES        0.145000
    2424 O           27.3591    10.4509    14.7704 opls_154      1 RES       -0.683000
    2425 H           26.9775    11.0371    14.1349 opls_155      1 RES        0.418000
    2426 H           28.5769    10.6461    16.4519 opls_140      1 RES        0.060000
    2427 H           29.1740    11.2089    14.9321 opls_140      1 RES        0.060000
    2428 H           27.9722    13.1782    15.1704 opls_140      1 RES        0.060000
    2429 H           28.4751    12.9197    16.8381 opls_140      1 RES        0.060000
    2430 H           26.8003    12.6311    16.4323 opls_140      1 RES        0.060000
    2431 C           33.5969    33.6796    33.5067 opls_135      1 RES       -0.180000
    2432 C           33.4521    32.1575    33.5061 opls_157      1 RES        0.145000
    2433 O           32.5767    31.6035    34.4627 opls_154      1 RES       -0.683000
    2434 H           31.7816    32.1142    34.4679 opls_155      1 RES        0.418000
    2435 H           34.4704    31.7822    33.6078 opls_140      1 RES        0.060000
    2436 H           33.0951    31.7424    32.5636 opls_140      1 RES        0.060000
    2437 H           32.7052    33.9935    32.9641 opls_140      1 RES        0.060000
    2438 H           34.4657    33.9873    32.9247 opls_140      1 RES        0.060000
    2439 H           33.6806    34.1743    34.4744 opls_140      1 RES        0.060000
    2440 C           33.6164    20.9144    16.8270 opls_135      1 RES       -0.180000
    2441 C           32.9228    20.3385    15.5921 opls_157      1 RES        0.145000
    2442 O           31.6400    20.8415    15.2930 opls_154      1 RES       -0.683000
    2443 H           31.6634    21.7824    15.3773 opls_155      1 RES        0.418000
    2444 H           32.9195    19.2606    15.7536 opls_140      1 RES        0.060000
    2445 H           33.4746    20.4792    14.6627 opls_140      1 RES        0.060000
    2446 H           34.0067    21.8593    16.4492 opls_140      1 RES        0.060000
    2447 H           34.4659    20.2968    17.1187 opls_140      1 RES        0.060000
    2448 H           33.0109    21.0524    17.7228 opls_140      1 RES        0.060000
    2449 C           32.2963     5.7904    25.2793 opls_135      1 RES       -0.180000
    2450 C           30.9050     5.1579    25.2315 opls_157      1 RES        0.145000
    2451 O           29.9067     5.8735    24.5391 opls_154      1 RES       -0.683000
    2452 H           30.2724     6.1777    23.7226 opls_155      1 RES        0.418000
    2453 H           30.6437     4.9841    26.2754 opls_140      1 RES        0.060000
    2454 H           30.8778     4.1710    24.7696 opls_140      1 RES        0.060000
    2455 H           32.6993     5.5284    24.3010 opls_140      1 RES        0.060000
    2456 H           32.9166     5.3076    26.0344 opls_140      1 RES        0.060000
    2457 H           32.3529     6.8621    25.4699 opls_140      1 RES        0.060000
    2458 C           18.2280     6.6737    24.8158 opls_135      1 RES       -0.180000
    2459 C           17.2953     7.2092    23.7289 opls_157      1 RES        0.145000
    2460 O           17.9041     7.6908    22.5518 opls_154      1 RES       -0.683000
    2461 H           18.5677     7.0724    22.2869 opls_155      1 RES        0.418000
    2462 H           16.6960     7.9703    24.2284 opls_140      1 RES        0.060000
    2463 H           16.5716     6.4814    23.3620 opls_140      1 RES        0.060000
    2464 H           18.4543     5.6726    24.4488 opls_140      1 RES        0.060000
    2465 H           17.6999     6.5688    25.7635 opls_140      1 RES        0.060000
    2466 H           19.1322     7.2450    25.0258 opls_140      1 RES        0.060000
    2467 C           19.4859     8.0069    17.8976 opls_135      1 RES       -0.180000
    2468 C           19.0302     7.8155    16.4507 opls_157      1 RES        0.145000
    2469 O           18.8251     6.4884    16.0207 opls_154      1 RES       -0.683000
    2470 H           18.3411     6.0310    16.6912 opls_155      1 RES        0.418000
    2471 H           19.7793     8.3351    15.8533 opls_140      1 RES        0.060000
    2472 H           18.0893     8.3100    16.2089 opls_140      1 RES        0.060000
    2473 H           18.5493     7.9078    18.4464 opls_140      1 RES        0.060000
    2474 H           19.8589     9.0186    18.0568 opls_140      1 RES        0.060000
    2475 H           20.2528     7.3304    18.2747 opls_140      1 RES        0.060000
    2476 C           28.7298    33.4568    30.6845 opls_135      1 RES       -0.180000
    2477 C           29.5855    33.4485    29.4174 opls_157      1 RES        0.145000
    2478 O           28.9210    33.7110    28.2018 opls_154      1 RES       -0.683000
    2479 H           28.3465    34.4500    28.3316 opls_155      1 RES        0.418000
    2480 H           30.0766    32.4754    29.4211 opls_140      1 RES        0.060000
    2481 H           30.4008    34.1719    29.4234 opls_140      1 RES        0.060000
    2482 H           28.6401    34.5232    30.8918 opls_140      1 RES        0.060000
    2483 H           29.2647    33.0002    31.5173 opls_140      1 RES        0.060000
    2484 H           27.7569    32.9679    30.6350 opls_140      1 RES        0.060000
    2485 C           17.8367    33.4326    27.8540 opls_135      1 RES       -0.180000
    2486 C           19.2215    33.6069    28.4782 opls_157      1 RES        0.145000
    2487 O           20.2947    33.8242    27.5898 opls_154      1 RES       -0.683000
    2488 H           20.0245    34.4646    26.9496 opls_155      1 RES        0.418000
    2489 H           19.3631    32.7169    29.0914 opls_140      1 RES        0.060000
    2490 H           19.2959    34.4407    29.1763 opls_140      1 RES        0.060000
    2491 H           17.5450    34.4639    27.6554 opls_140      1 RES        0.060000
    2492 H           17.1332    33.0218    28.5782 opls_140      1 RES        0.060000
    2493 H           17.7640    32.8094    26.9627 opls_140      1 RES        0.060000
    2494 C           13.0172    12.3989    28.1148 opls_135      1 RES       -0.180000
    2495 C           13.2787    13.6692    28.9246 opls_157      1 RES        0.145000
    2496 O           12.3588    13.9678    29.9506 opls_154      1 RES       -0.683000
    2497 H           12.1857    13.1742    30.4337 opls_155      1 RES        0.418000
    2498 H           13.3441    14.4633    28.1808 opls_140      1 RES        0.060000
    2499 H           14.2423    13.6847    29.4339 opls_140      1 RES        0.060000
    2500 H           13.4067    11.6238    28.7749 opls_140      1 RES        0.060000
    2501 H           13.6143    12.3898    27.2030 opls_140      1 RES        0.060000
    2502 H           11.9886    12.1995    27.8143 opls_140      1 RES        0.060000
    2503 C           18.3073     9.7478     7.4616 opls_135      1 RES       -0.180000
    2504 C           17.8986     9.3786     6.0353 opls_157      1 RES        0.145000
    2505 O           18.2440    10.2937     5.0197 opls_154      1 RES       -0.683000
    2506 H           19.1386    10.5655     5.1573 opls_155      1 RES        0.418000
    2507 H           16.8239     9.2054     6.0910 opls_140      1 RES        0.060000
    2508 H           18.3146     8.4355     5.6807 opls_140      1 RES        0.060000
    2509 H           19.3596     9.4642     7.4777 opls_140      1 RES        0.060000
    2510 H           17.7845     9.1264     8.1886 opls_140      1 RES        0.060000
    2511 H           18.1589    10.7817     7.7733 opls_140      1 RES        0.060000
    2512 C           28.9186    20.7861    14.5464 opls_135      1 RES       -0.180000
    2513 C           27.7598    21.3190    15.3896 opls_157      1 RES        0.145000
    2514 O           27.3151    22.6259    15.1023 opls_154      1 RES       -0.683000
    2515 H           27.2452    22.7157    14.1642 opls_155      1 RES        0.418000
    2516 H           28.0953    21.2114    16.4211 opls_140      1 RES        0.060000
    2517 H           26.8503    20.7213    15.3288 opls_140      1 RES        0.060000
    2518 H           28.4121    20.4796    13.6312 opls_140      1 RES        0.060000
    2519 H           29.3519    19.8951    15.0008 opls_140      1 RES        0.060000
    2520 H           29.7464    21.4663    14.3461 opls_140      1 RES        0.060000
    2521 C           14.9820    21.2219    30.4402 opls_135      1 RES       -0.180000
    2522 C           15.3112    22.6647    30.8246 opls_157      1 RES        0.145000
    2523 O           14.9924    23.0588    32.1404 opls_154      1 RES       -0.683000
    2524 H           15.2763    22.3777    32.7308 opls_155      1 RES        0.418000
    2525 H           14.8064    23.2734    30.0745 opls_140      1 RES        0.060000
    2526 H           16.3658    22.9235    30.7296 opls_140      1 RES        0.060000
    2527 H           15.8188    20.6741    30.8735 opls_140      1 RES        0.060000
    2528 H           15.0222    21.0893    29.3590 opls_140      1 RES        0.060000
    2529 H           14.0213    20.8235    30.7662 opls_140      1 RES        0.060000
    2530 C           17.2013    26.4374    32.2761 opls_135      1 RES       -0.180000
    2531 C           17.4019    26.9045    33.7181 opls_157      1 RES        0.145000
    2532 O           16.9845    28.2162    34.0237 opls_154      1 RES       -0.683000
    2533 H           16.1324    28.3534    33.6386 opls_155      1 RES        0.418000
    2534 H           18.4628    26.7495    33.9144 opls_140      1 RES        0.060000
    2535 H           16.8891    26.2942    34.4615 opls_140      1 RES        0.060000
    2536 H           16.1447    26.1697    32.2684 opls_140      1 RES        0.060000
    2537 H           17.7750    25.5321    32.0777 opls_140      1 RES        0.060000
    2538 H           17.4491    27.1422    31.4824 opls_140      1 RES        0.060000
    2539 C           22.0994    15.0426    20.5372 opls_135      1 RES       -0.180000
    2540 C           22.7078    16.1909    19.7316 opls_157      1 RES        0.145000
    2541 O           23.1719    15.8809    18.4367 opls_154      1 RES       -0.683000
    2542 H           22.5195    15.3488    18.0075 opls_155      1 RES        0.418000
    2543 H           23.4950    16.5911    20.3706 opls_140      1 RES        0.060000
    2544 H           22.0309    17.0290    19.5657 opls_140      1 RES        0.060000
    2545 H           21.0928    14.9823    20.1233 opls_140      1 RES        0.060000
    2546 H           22.0103    15.3112    21.5898 opls_140      1 RES        0.060000
    2547 H           22.6120    14.0813    20.5045 opls_140      1 RES        0.060000
    2548 C           28.4594     2.9632    15.8210 opls_135      1 RES       -0.180000
    2549 C           28.8820     2.8585    17.2868 opls_157      1 RES        0.145000
    2550 O           29.1141     4.0710    17.9679 opls_154      1 RES       -0.683000
    2551 H           28.4098     4.6664    17.7617 opls_155      1 RES        0.418000
    2552 H           29.7600     2.2127    17.2765 opls_140      1 RES        0.060000
    2553 H           28.1639     2.3420    17.9236 opls_140      1 RES        0.060000
    2554 H           27.3969     3.1911    15.9061 opls_140      1 RES        0.060000
    2555 H           28.5537     1.9998    15.3199 opls_140      1 RES        0.060000
    2556 H           28.9836     3.6891    15.1994 opls_140      1 RES        0.060000
    2557 C           32.6338    33.6574     5.3322 opls_135      1 RES       -0.180000
    2558 C           33.7051    33.6452     6.4231 opls_157      1 RES        0.145000
    2559 O           33.2749    33.9206     7.7373 opls_154      1 RES       -0.683000
    2560 H           32.4854    33.4276     7.9003 opls_155      1 RES        0.418000
    2561 H           34.4611    34.3500     6.0768 opls_140      1 RES        0.060000
    2562 H           34.2329    32.6966     6.5213 opls_140      1 RES        0.060000
    2563 H           32.1738    32.6767     5.4538 opls_140      1 RES        0.060000
    2564 H           33.0882    33.6910     4.3420 opls_140      1 RES        0.060000
    2565 H           31.8969    34.4600     5.3630 opls_140      1 RES        0.060000
    2566 C           21.0071     9.1365    28.9165 opls_135      1 RES       -0.180000
    2567 C           21.1244     9.8620    30.2573 opls_157      1 RES        0.145000
    2568 O           21.0533     9.0646    31.4180 opls_154      1 RES       -0.683000
    2569 H           21.5979     8.3033    31.2885 opls_155      1 RES        0.418000
    2570 H           20.3463    10.6248    30.2286 opls_140      1 RES        0.060000
    2571 H           22.0537    10.4168    30.3859 opls_140      1 RES        0.060000
    2572 H           22.0141     8.7416    28.7823 opls_140      1 RES        0.060000
    2573 H           20.8165     9.8426    28.1082 opls_140      1 RES        0.060000
    2574 H           20.2492     8.3575    28.8332 opls_140      1 RES        0.060000
    2575 C            6.6310     2.8206    10.4620 opls_135      1 RES       -0.180000
    2576 C            5.1252     2.7885    10.1987 opls_157      1 RES        0.145000
    2577 O            4.5535     3.9520     9.6443 opls_154      1 RES       -0.683000
    2578 H            5.1099     4.2494     8.9408 opls_155      1 RES        0.418000
    2579 H            4.6817     2.5241    11.1586 opls_140      1 RES        0.060000
    2580 H            4.8069     1.9989     9.5180 opls_140      1 RES        0.060000
    2581 H            7.0398     2.6245     9.4708 opls_140      1 RES        0.060000
    2582 H            6.9291     1.9988    11.1130 opls_140      1 RES        0.060000
    2583 H            7.0434     3.7293    10.9006 opls_140      1 RES        0.060000
    2584 C           33.6228    30.2574    28.2605 opls_135      1 RES       -0.180000
    2585 C           33.6930    30.5419    26.7599 opls_157      1 RES        0.145000
    2586 O           32.5268    31.0559    26.1567 opls_154      1 RES       -0.683000
    2587 H           32.1827    31.7392    26.7114 opls_155      1 RES        0.418000
    2588 H           34.0111    29.5996    26.3138 opls_140      1 RES        0.060000
    2589 H           34.4637    31.2586    26.4760 opls_140      1 RES        0.060000
    2590 H           33.7645    31.2502    28.6874 opls_140      1 RES        0.060000
    2591 H           34.4607    29.6366    28.5777 opls_140      1 RES        0.060000
    2592 H           32.7201    29.7765    28.6373 opls_140      1 RES        0.060000
    2593 C           22.1776     3.0243     5.0987 opls_135      1 RES       -0.180000
    2594 C           23.0147     3.7867     4.0711 opls_157      1 RES        0.145000
    2595 O           23.4247     3.0688     2.9289 opls_154      1 RES       -0.683000
    2596 H           22.6847     2.5776     2.6061 opls_155      1 RES        0.418000
    2597 H           23.8574     4.1818     4.6385 opls_140      1 RES        0.060000
    2598 H           22.5218     4.6658     3.6561 opls_140      1 RES        0.060000
    2599 H           21.1851     3.0511     4.6489 opls_140      1 RES        0.060000
    2600 H           22.1300     3.5688     6.0417 opls_140      1 RES        0.060000
    2601 H           22.4875     2.0081     5.3423 opls_140      1 RES        0.060000
    2602 C            5.8686    32.1822     2.7062 opls_135      1 RES       -0.180000
    2603 C            6.3148    33.6208     2.9695 opls_157      1 RES        0.145000
    2604 O            5.3829    34.4676     3.6040 opls_154      1 RES       -0.683000
    2605 H            4.9963    33.9952     4.3254 opls_155      1 RES        0.418000
    2606 H            6.6229    33.9982     1.9945 opls_140      1 RES        0.060000
    2607 H            7.2036    33.7062     3.5947 opls_140      1 RES        0.060000
    2608 H            6.0149    31.7164     3.6808 opls_140      1 RES        0.060000
    2609 H            6.5376    31.6913     1.9995 opls_140      1 RES        0.060000
    2610 H            4.8564    32.0327     2.3307 opls_140      1 RES        0.060000
    2611 C            4.3582    24.5094    26.1929 opls_135      1 RES       -0.180000
    2612 C            3.3679    24.3174    25.0439 opls_157      1 RES        0.145000
    2613 O            3.7776    24.7671    23.7719 opls_154      1 RES       -0.683000
    2614 H            4.6672    24.4822    23.6290 opls_155      1 RES        0.418000
    2615 H            2.4532    24.8041    25.3822 opls_140      1 RES        0.060000
    2616 H            3.0827    23.2802    24.8677 opls_140      1 RES        0.060000
    2617 H            5.0407    23.6720    26.0477 opls_140      1 RES        0.060000
    2618 H            3.8664    24.3742    27.1562 opls_140      1 RES        0.060000
    2619 H            4.8864    25.4615    26.2449 opls_140      1 RES        0.060000
    2620 C            7.8103    23.0962    17.0609 opls_135      1 RES       -0.180000
    2621 C            8.5561    21.9899    16.3140 opls_157      1 RES        0.145000
    2622 O            9.9409    22.1753    16.1242 opls_154      1 RES       -0.683000
    2623 H           10.3142    22.4757    16.9387 opls_155      1 RES        0.418000
    2624 H            8.0184    21.8802    15.3723 opls_140      1 RES        0.060000
    2625 H            8.4928    21.0098    16.7867 opls_140      1 RES        0.060000
    2626 H            8.0466    22.8685    18.1003 opls_140      1 RES        0.060000
    2627 H            6.7327    22.9919    16.9344 opls_140      1 RES        0.060000
    2628 H            8.0547    24.1268    16.8035 opls_140      1 RES        0.060000
    2629 C           11.3930    26.3209    21.0182 opls_135      1 RES       -0.180000
    2630 C           10.3766    25.5269    21.8396 opls_157      1 RES        0.145000
    2631 O            9.0967    25.3578    21.2727 opls_154      1 RES       -0.683000
    2632 H            9.2039    25.1161    20.3655 opls_155      1 RES        0.418000
    2633 H           10.3408    26.0357    22.8029 opls_140      1 RES        0.060000
    2634 H           10.6881    24.5089    22.0737 opls_140      1 RES        0.060000
    2635 H           11.7399    25.5753    20.3028 opls_140      1 RES        0.060000
    2636 H           12.2446    26.6138    21.6323 opls_140      1 RES        0.060000
    2637 H           11.0401    27.2263    20.5246 opls_140      1 RES        0.060000
    2638 C           19.4995    23.9186     2.9089 opls_135      1 RES       -0.180000
    2639 C           20.2251    22.5733     2.8741 opls_157      1 RES        0.145000
    2640 O           21.3207    22.4663     1.9930 opls_154      1 RES       -0.683000
    2641 H           21.8518    23.2426     2.0848 opls_155      1 RES        0.418000
    2642 H           19.4451    21.8432     2.6581 opls_140      1 RES        0.060000
    2643 H           20.6387    22.2631     3.8337 opls_140      1 RES        0.060000
    2644 H           20.1520    24.5128     3.5487 opls_140      1 RES        0.060000
    2645 H           18.5359    23.8273     3.4102 opls_140      1 RES        0.060000
    2646 H           19.3077    24.4090     1.9545 opls_140      1 RES        0.060000
    2647 C           23.4291    23.1202     9.0822 opls_135      1 RES       -0.180000
    2648 C           23.1596    21.8156     8.3317 opls_157      1 RES        0.145000
    2649 O           22.9790    20.6583     9.1166 opls_154      1 RES       -0.683000
    2650 H           22.4012    20.8731     9.8329 opls_155      1 RES        0.418000
    2651 H           23.9924    21.7197     7.6350 opls_140      1 RES        0.060000
    2652 H           22.2705    21.8374     7.7015 opls_140      1 RES        0.060000
    2653 H           22.4272    23.4137     9.3958 opls_140      1 RES        0.060000
    2654 H           23.8034    23.8878     8.4047 opls_140      1 RES        0.060000
    2655 H           24.1238    23.0810     9.9211 opls_140      1 RES        0.060000
    2656 C           11.4657    13.6960     6.6109 opls_135      1 RES       -0.180000
    2657 C           11.2200    12.7937     5.4012 opls_157      1 RES        0.145000
    2658 O           12.2937    11.9771     4.9907 opls_154      1 RES       -0.683000
    2659 H           12.6730    11.5780     5.7587 opls_155      1 RES        0.418000
    2660 H           10.8875    13.4702     4.6139 opls_140      1 RES        0.060000
    2661 H           10.3981    12.0891     5.5282 opls_140      1 RES        0.060000
    2662 H           11.3376    13.0025     7.4420 opls_140      1 RES        0.060000
    2663 H           10.6903    14.4577     6.6911 opls_140      1 RES        0.060000
    2664 H           12.4208    14.2189     6.6597 opls_140      1 RES        0.060000
    2665 C           25.0661    29.8551     5.8342 opls_135      1 RES       -0.180000
    2666 C           24.5904    29.3389     7.1925 opls_157      1 RES        0.145000
    2667 O           24.4039    30.3007     8.2065 opls_154      1 RES       -0.683000
    2668 H           23.9399    31.0359     7.8360 opls_155      1 RES        0.418000
    2669 H           25.3196    28.5778     7.4705 opls_140      1 RES        0.060000
    2670 H           23.6364    28.8125     7.1620 opls_140      1 RES        0.060000
    2671 H           24.1407    30.2288     5.3958 opls_140      1 RES        0.060000
    2672 H           25.4222    29.0354     5.2102 opls_140      1 RES        0.060000
    2673 H           25.8520    30.6104     5.8328 opls_140      1 RES        0.060000
    2674 C           20.0470    28.4348    17.3872 opls_135      1 RES       -0.180000
    2675 C           18.8740    27.6002    16.8720 opls_157      1 RES        0.145000
    2676 O           19.0340    26.9929    15.6095 opls_154      1 RES       -0.683000
    2677 H           19.8927    26.5999    15.5764 opls_155      1 RES        0.418000
    2678 H           18.0188    28.2753    16.9032 opls_140      1 RES        0.060000
    2679 H           18.5968    26.7695    17.5210 opls_140      1 RES        0.060000
    2680 H           20.7201    27.6686    17.7717 opls_140      1 RES        0.060000
    2681 H           19.7403    29.0593    18.2262 opls_140      1 RES        0.060000
    2682 H           20.5437    29.0938    16.6750 opls_140      1 RES        0.060000
    2683 C           12.1668     4.0766     5.2230 opls_135      1 RES       -0.180000
    2684 C           10.9080     3.7423     4.4220 opls_157      1 RES        0.145000
    2685 O           11.0479     3.6732     3.0206 opls_154      1 RES       -0.683000
    2686 H           11.8297     3.1798     2.8247 opls_155      1 RES        0.418000
    2687 H           10.1767     4.4894     4.7305 opls_140      1 RES        0.060000
    2688 H           10.4545     2.7854     4.6802 opls_140      1 RES        0.060000
    2689 H           12.6764     3.1138     5.2588 opls_140      1 RES        0.060000
    2690 H           11.9135     4.3569     6.2454 opls_140      1 RES        0.060000
    2691 H           12.8120     4.8653     4.8358 opls_140      1 RES        0.060000
    2692 C            9.6954    29.2349    31.8582 opls_135      1 RES       -0.180000
    2693 C           10.0069    30.4710    31.0140 opls_157      1 RES        0.145000
    2694 O           11.3202    30.5823    30.5130 opls_154      1 RES       -0.683000
    2695 H           11.5758    29.7428    30.1624 opls_155      1 RES        0.418000
    2696 H            9.7300    31.3150    31.6459 opls_140      1 RES        0.060000
    2697 H            9.3853    30.5735    30.1245 opls_140      1 RES        0.060000
    2698 H            9.5357    28.4726    31.0956 opls_140      1 RES        0.060000
    2699 H            8.7595    29.3619    32.4023 opls_140      1 RES        0.060000
    2700 H           10.4414    28.9281    32.5913 opls_140      1 RES        0.060000
    2701 C           10.7622    33.4323    14.2333 opls_135      1 RES       -0.180000
    2702 C            9.2854    33.6200    13.8849 opls_157      1 RES        0.145000
    2703 O            8.4011    33.8288    14.9631 opls_154      1 RES       -0.683000
    2704 H            8.7914    34.4594    15.5487 opls_155      1 RES        0.418000
    2705 H            9.0250    32.7390    13.2982 opls_140      1 RES        0.060000
    2706 H            9.0853    34.4636    13.2242 opls_140      1 RES        0.060000
    2707 H           11.0925    34.4597    14.3864 opls_140      1 RES        0.060000
    2708 H           11.3135    33.0291    13.3838 opls_140      1 RES        0.060000
    2709 H           10.9986    32.7966    15.0866 opls_140      1 RES        0.060000
    2710 C           32.7534    33.6249    28.4199 opls_135      1 RES       -0.180000
    2711 C           33.5717    33.8205    29.6966 opls_157      1 RES        0.145000
    2712 O           32.9253    34.4642    30.7717 opls_154      1 RES       -0.683000
    2713 H           32.0614    34.0924    30.8637 opls_155      1 RES        0.418000
    2714 H           34.4678    34.3500    29.3730 opls_140      1 RES        0.060000
    2715 H           33.9398    32.8944    30.1383 opls_140      1 RES        0.060000
    2716 H           32.1538    32.7484    28.6657 opls_140      1 RES        0.060000
    2717 H           33.3985    33.3619    27.5816 opls_140      1 RES        0.060000
    2718 H           32.1372    34.4602    28.0872 opls_140      1 RES        0.060000
    2719 C           11.3507    27.4119    10.5639 opls_135      1 RES       -0.180000
    2720 C           11.1100    26.0630    11.2423 opls_157      1 RES        0.145000
    2721 O           10.4287    26.0865    12.4765 opls_154      1 RES       -0.683000
    2722 H            9.6888    26.6687    12.3957 opls_155      1 RES        0.418000
    2723 H           12.0993    25.6125    11.3220 opls_140      1 RES        0.060000
    2724 H           10.5307    25.3589    10.6449 opls_140      1 RES        0.060000
    2725 H           10.3850    27.6081    10.0981 opls_140      1 RES        0.060000
    2726 H           12.0907    27.3203     9.7689 opls_140      1 RES        0.060000
    2727 H           11.6744    28.2393    11.1954 opls_140      1 RES        0.060000
    2728 C           27.3415     8.9066     6.3960 opls_135      1 RES       -0.180000
    2729 C           26.3932     8.6234     5.2305 opls_157      1 RES        0.145000
    2730 O           26.8201     9.0353     3.9514 opls_154      1 RES       -0.683000
    2731 H           27.7244     8.7826     3.8450 opls_155      1 RES        0.418000
    2732 H           25.4499     9.0848     5.5226 opls_140      1 RES        0.060000
    2733 H           26.1563     7.5685     5.0927 opls_140      1 RES        0.060000
    2734 H           28.0619     8.0935     6.3062 opls_140      1 RES        0.060000
    2735 H           26.8284     8.7920     7.3509 opls_140      1 RES        0.060000
    2736 H           27.8282     9.8816     6.4202 opls_140      1 RES        0.060000
    2737 C           33.7319    17.0953    11.0571 opls_135      1 RES       -0.180000
    2738 C           32.8628    18.0077    11.9231 opls_157      1 RES        0.145000
    2739 O           33.5106    18.6911    12.9726 opls_154      1 RES       -0.683000
    2740 H           34.3176    19.0515    12.6381 opls_155      1 RES        0.418000
    2741 H           32.0571    17.3661    12.2797 opls_140      1 RES        0.060000
    2742 H           32.3618    18.8035    11.3719 opls_140      1 RES        0.060000
    2743 H           34.2082    17.8072    10.3829 opls_140      1 RES        0.060000
    2744 H           33.1148    16.4287    10.4545 opls_140      1 RES        0.060000
    2745 H           34.4612    16.4664    11.5675 opls_140      1 RES        0.060000
    2746 C           33.5508    32.4919    16.3276 opls_135      1 RES       -0.180000
    2747 C           33.4955    33.9460    16.7971 opls_157      1 RES        0.145000
    2748 O           32.9975    34.1743    18.0963 opls_154      1 RES       -0.683000
    2749 H           33.3932    33.5454    18.6802 opls_155      1 RES        0.418000
    2750 H           32.9148    34.4621    16.0326 opls_140      1 RES        0.060000
    2751 H           34.4612    34.4515    16.8019 opls_140      1 RES        0.060000
    2752 H           34.4611    32.1321    16.8072 opls_140      1 RES        0.060000
    2753 H           33.6994    32.4374    15.2491 opls_140      1 RES        0.060000
    2754 H           32.6927    31.8593    16.5550 opls_140      1 RES        0.060000
    2755 C           10.6162     6.9397    29.7147 opls_135      1 RES       -0.180000
    2756 C           11.3962     8.2439    29.8834 opls_157      1 RES        0.145000
    2757 O           10.6366     9.4203    30.0484 opls_154      1 RES       -0.683000
    2758 H            9.9483     9.2438    30.6714 opls_155      1 RES        0.418000
    2759 H           12.0503     8.2901    29.0126 opls_140      1 RES        0.060000
    2760 H           12.0710     8.2542    30.7394 opls_140      1 RES        0.060000
    2761 H           10.3508     6.6984    30.7440 opls_140      1 RES        0.060000
    2762 H           11.2635     6.1453    29.3434 opls_140      1 RES        0.060000
    2763 H            9.7431     6.9592    29.0624 opls_140      1 RES        0.060000
    2764 C           32.8305    25.7554    26.5374 opls_135      1 RES       -0.180000
    2765 C           33.5058    26.6241    25.4758 opls_157      1 RES        0.145000
    2766 O           33.3074    26.2505    24.1307 opls_154      1 RES       -0.683000
    2767 H           32.3912    26.0531    24.0100 opls_155      1 RES        0.418000
    2768 H           34.5597    26.6322    25.7539 opls_140      1 RES        0.060000
    2769 H           33.2043    27.6713    25.4965 opls_140      1 RES        0.060000
    2770 H           31.8066    26.1289    26.5197 opls_140      1 RES        0.060000
    2771 H           33.2418    25.9600    27.5259 opls_140      1 RES        0.060000
    2772 H           32.8727    24.6747    26.4013 opls_140      1 RES        0.060000
    2773 C           16.7631    11.3956    17.6505 opls_135      1 RES       -0.180000
    2774 C           17.6537    10.9476    16.4912 opls_157      1 RES        0.145000
    2775 O           18.1738    11.9627    15.6622 opls_154      1 RES       -0.683000
    2776 H           18.4978    12.6586    16.2134 opls_155      1 RES        0.418000
    2777 H           17.0486    10.2289    15.9386 opls_140      1 RES        0.060000
    2778 H           18.5389    10.3897    16.7968 opls_140      1 RES        0.060000
    2779 H           17.4966    11.7118    18.3922 opls_140      1 RES        0.060000
    2780 H           16.2127    10.5515    18.0661 opls_140      1 RES        0.060000
    2781 H           16.0286    12.1745    17.4457 opls_140      1 RES        0.060000
    2782 C            2.7683     6.9889    23.1416 opls_135      1 RES       -0.180000
    2783 C            3.5471     5.6936    22.9106 opls_157      1 RES        0.145000
    2784 O            2.8391     4.4874    23.0896 opls_154      1 RES       -0.683000
    2785 H            1.9999     4.5702    22.6630 opls_155      1 RES        0.418000
    2786 H            4.4125     5.7694    23.5690 opls_140      1 RES        0.060000
    2787 H            3.9668     5.5964    21.9093 opls_140      1 RES        0.060000
    2788 H            2.2231     7.0971    22.2040 opls_140      1 RES        0.060000
    2789 H            3.4454     7.8382    23.2323 opls_140      1 RES        0.060000
    2790 H            2.1050     7.0271    24.0057 opls_140      1 RES        0.060000
    2791 C            3.0215    32.0217    26.4803 opls_135      1 RES       -0.180000
    2792 C            2.8459    33.4391    27.0262 opls_157      1 RES        0.145000
    2793 O            2.6967    34.4704    26.0763 opls_154      1 RES       -0.683000
    2794 H            2.0836    34.1808    25.4181 opls_155      1 RES        0.418000
    2795 H            3.7068    33.5941    27.6765 opls_140      1 RES        0.060000
    2796 H            1.9798    33.5640    27.6761 opls_140      1 RES        0.060000
    2797 H            1.9955    31.7401    26.2435 opls_140      1 RES        0.060000
    2798 H            3.3801    31.3476    27.2582 opls_140      1 RES        0.060000
    2799 H            3.6871    31.8927    25.6268 opls_140      1 RES        0.060000
    2800 C            3.9547     5.2224     3.0422 opls_135      1 RES       -0.180000
    2801 C            2.6197     4.9157     3.7214 opls_157      1 RES        0.145000
    2802 O            2.6782     4.2510     4.9635 opls_154      1 RES       -0.683000
    2803 H            3.3468     4.6630     5.4890 opls_155      1 RES        0.418000
    2804 H            2.0521     4.3570     2.9772 opls_140      1 RES        0.060000
    2805 H            2.0121     5.7959     3.9318 opls_140      1 RES        0.060000
    2806 H            4.2815     6.1154     3.5751 opls_140      1 RES        0.060000
    2807 H            3.8053     5.4950     1.9974 opls_140      1 RES        0.060000
    2808 H            4.7137     4.4402     3.0534 opls_140      1 RES        0.060000
    2809 C           16.5107    31.4712    19.3708 opls_135      1 RES       -0.180000
    2810 C           15.4479    32.1446    18.5019 opls_157      1 RES        0.145000
    2811 O           15.8029    33.3700    17.9016 opls_154      1 RES       -0.683000
    2812 H           16.6692    33.2804    17.5347 opls_155      1 RES        0.418000
    2813 H           14.5770    32.2364    19.1508 opls_140      1 RES        0.060000
    2814 H           15.1070    31.5389    17.6623 opls_140      1 RES        0.060000
    2815 H           17.1455    30.9932    18.6247 opls_140      1 RES        0.060000
    2816 H           16.0699    30.6856    19.9845 opls_140      1 RES        0.060000
    2817 H           17.0830    32.1079    20.0455 opls_140      1 RES        0.060000
    2818 C            5.4641    19.5268    11.1234 opls_135      1 RES       -0.180000
    2819 C            4.5969    20.4360    11.9947 opls_157      1 RES        0.145000
    2820 O            4.6595    20.2271    13.3877 opls_154      1 RES       -0.683000
    2821 H            5.5671    20.1300    13.6324 opls_155      1 RES        0.418000
    2822 H            3.5875    20.3162    11.6012 opls_140      1 RES        0.060000
    2823 H            4.8136    21.4988    11.8864 opls_140      1 RES        0.060000
    2824 H            6.4449    19.9941    11.2123 opls_140      1 RES        0.060000
    2825 H            5.1611    19.5864    10.0780 opls_140      1 RES        0.060000
    2826 H            5.4926    18.4675    11.3784 opls_140      1 RES        0.060000
    2827 C            8.6784    24.3920     4.9898 opls_135      1 RES       -0.180000
    2828 C            8.2784    25.4080     6.0601 opls_157      1 RES        0.145000
    2829 O            8.1742    24.9287     7.3820 opls_154      1 RES       -0.683000
    2830 H            8.9264    24.3852     7.5604 opls_155      1 RES        0.418000
    2831 H            7.3440    25.8377     5.6988 opls_140      1 RES        0.060000
    2832 H            8.9584    26.2552     6.1491 opls_140      1 RES        0.060000
    2833 H            9.7590    24.3365     5.1211 opls_140      1 RES        0.060000
    2834 H            8.4845    24.7833     3.9911 opls_140      1 RES        0.060000
    2835 H            8.2112    23.4081     5.0338 opls_140      1 RES        0.060000
    2836 C           12.2803    15.3645    25.7945 opls_135      1 RES       -0.180000
    2837 C           11.1786    14.9400    26.7661 opls_157      1 RES        0.145000
    2838 O           11.3286    15.3412    28.1094 opls_154      1 RES       -0.683000
    2839 H           11.5891    16.2496    28.1202 opls_155      1 RES        0.418000
    2840 H           11.1179    13.8569    26.6600 opls_140      1 RES        0.060000
    2841 H           10.1850    15.3018    26.5016 opls_140      1 RES        0.060000
    2842 H           12.0096    16.3986    25.5811 opls_140      1 RES        0.060000
    2843 H           12.2129    14.8041    24.8621 opls_140      1 RES        0.060000
    2844 H           13.3113    15.2752    26.1366 opls_140      1 RES        0.060000
    2845 C           28.2887    23.1564    29.8110 opls_135      1 RES       -0.180000
    2846 C           28.0916    21.9865    28.8464 opls_157      1 RES        0.145000
    2847 O           29.1125    21.7669    27.8990 opls_154      1 RES       -0.683000
    2848 H           29.9454    21.8280    28.3412 opls_155      1 RES        0.418000
    2849 H           27.1242    22.1721    28.3797 opls_140      1 RES        0.060000
    2850 H           27.9841    21.0177    29.3343 opls_140      1 RES        0.060000
    2851 H           28.9682    22.7308    30.5494 opls_140      1 RES        0.060000
    2852 H           27.3564    23.4017    30.3196 opls_140      1 RES        0.060000
    2853 H           28.6703    24.0891    29.3955 opls_140      1 RES        0.060000
    2854 C           28.3976    16.6067    32.0758 opls_135      1 RES       -0.180000
    2855 C           29.7303    17.0039    31.4403 opls_157      1 RES        0.145000
    2856 O           29.7063    17.3309    30.0689 opls_154      1 RES       -0.683000
    2857 H           28.9660    17.8968    29.9120 opls_155      1 RES        0.418000
    2858 H           30.3998    16.1717    31.6576 opls_140      1 RES        0.060000
    2859 H           30.2048    17.8706    31.9005 opls_140      1 RES        0.060000
    2860 H           27.9310    17.5761    32.2512 opls_140      1 RES        0.060000
    2861 H           28.5552    16.1335    33.0450 opls_140      1 RES        0.060000
    2862 H           27.7503    15.9398    31.5064 opls_140      1 RES        0.060000
    2863 C           26.0254    26.1998     2.7865 opls_135      1 RES       -0.180000
    2864 C           24.8472    25.4770     3.4401 opls_157      1 RES        0.145000
    2865 O           24.3899    25.9934     4.6699 opls_154      1 RES       -0.683000
    2866 H           24.3329    26.9336     4.5939 opls_155      1 RES        0.418000
    2867 H           25.1685    24.4385     3.5190 opls_140      1 RES        0.060000
    2868 H           23.9466    25.4441     2.8269 opls_140      1 RES        0.060000
    2869 H           25.5368    27.0538     2.3174 opls_140      1 RES        0.060000
    2870 H           26.4635    25.5916     1.9951 opls_140      1 RES        0.060000
    2871 H           26.8472    26.5053     3.4341 opls_140      1 RES        0.060000
    2872 C           30.2880    27.7131    25.2800 opls_135      1 RES       -0.180000
    2873 C           28.9986    28.1128    24.5621 opls_157      1 RES        0.145000
    2874 O           29.1304    28.5973    23.2445 opls_154      1 RES       -0.683000
    2875 H           29.7278    28.0319    22.7792 opls_155      1 RES        0.418000
    2876 H           28.5249    28.8363    25.2257 opls_140      1 RES        0.060000
    2877 H           28.2719    27.3061    24.4654 opls_140      1 RES        0.060000
    2878 H           30.4801    26.7222    24.8684 opls_140      1 RES        0.060000
    2879 H           30.1176    27.6009    26.3508 opls_140      1 RES        0.060000
    2880 H           31.1478    28.3739    25.1701 opls_140      1 RES        0.060000
    2881 C            7.7256    18.1388    15.8049 opls_135      1 RES       -0.180000
    2882 C            9.1353    17.6200    15.5196 opls_157      1 RES        0.145000
    2883 O            9.9359    18.3996    14.6597 opls_154      1 RES       -0.683000
    2884 H            9.8514    19.3053    14.9160 opls_155      1 RES        0.418000
    2885 H            8.9872    16.6071    15.1451 opls_140      1 RES        0.060000
    2886 H            9.7563    17.5007    16.4074 opls_140      1 RES        0.060000
    2887 H            7.9117    18.8980    16.5646 opls_140      1 RES        0.060000
    2888 H            7.1095    17.3611    16.2561 opls_140      1 RES        0.060000
    2889 H            7.1579    18.5352    14.9630 opls_140      1 RES        0.060000
    2890 C            2.8548    21.0474    28.1479 opls_135      1 RES       -0.180000
    2891 C            2.7293    21.5511    26.7098 opls_157      1 RES        0.145000
    2892 O            3.8962    21.5097    25.9193 opls_154      1 RES       -0.683000
    2893 H            4.3130    20.6718    26.0498 opls_155      1 RES        0.418000
    2894 H            2.3262    22.5595    26.8036 opls_140      1 RES        0.060000
    2895 H            1.9958    21.0128    26.1096 opls_140      1 RES        0.060000
    2896 H            2.8022    19.9667    28.0161 opls_140      1 RES        0.060000
    2897 H            1.9936    21.3519    28.7427 opls_140      1 RES        0.060000
    2898 H            3.7405    21.3472    28.7080 opls_140      1 RES        0.060000
    2899 C           25.3032    20.7822    10.4363 opls_135      1 RES       -0.180000
    2900 C           26.2920    21.6507    11.2147 opls_157      1 RES        0.145000
    2901 O           26.3653    21.4363    12.6064 opls_154      1 RES       -0.683000
    2902 H           26.3917    20.5045    12.7618 opls_155      1 RES        0.418000
    2903 H           26.0163    22.6754    10.9659 opls_140      1 RES        0.060000
    2904 H           27.3271    21.5534    10.8872 opls_140      1 RES        0.060000
    2905 H           25.8567    19.8496    10.3265 opls_140      1 RES        0.060000
    2906 H           25.1326    21.1869     9.4388 opls_140      1 RES        0.060000
    2907 H           24.3200    20.6231    10.8792 opls_140      1 RES        0.060000
    2908 C           32.6584    23.9306    31.3305 opls_135      1 RES       -0.180000
    2909 C           33.5956    22.7887    31.7249 opls_157      1 RES        0.145000
    2910 O           34.1577    22.0375    30.6724 opls_154      1 RES       -0.683000
    2911 H           34.4620    22.6380    30.0092 opls_155      1 RES        0.418000
    2912 H           33.0104    22.1735    32.4084 opls_140      1 RES        0.060000
    2913 H           34.4631    23.1022    32.3057 opls_140      1 RES        0.060000
    2914 H           33.3611    24.7188    31.0600 opls_140      1 RES        0.060000
    2915 H           32.0852    24.2771    32.1904 opls_140      1 RES        0.060000
    2916 H           31.9385    23.7358    30.5356 opls_140      1 RES        0.060000
    2917 C           26.8318    22.2974     6.8648 opls_135      1 RES       -0.180000
    2918 C           27.5804    22.9586     8.0224 opls_157      1 RES        0.145000
    2919 O           26.9041    23.9873     8.7097 opls_154      1 RES       -0.683000
    2920 H           26.0184    23.7017     8.8737 opls_155      1 RES        0.418000
    2921 H           28.5203    23.2977     7.5867 opls_140      1 RES        0.060000
    2922 H           27.8734    22.2716     8.8163 opls_140      1 RES        0.060000
    2923 H           26.1744    21.6018     7.3864 opls_140      1 RES        0.060000
    2924 H           27.5120    21.7117     6.2464 opls_140      1 RES        0.060000
    2925 H           26.2803    22.9495     6.1875 opls_140      1 RES        0.060000
    2926 C           12.4845    20.9694    13.5732 opls_135      1 RES       -0.180000
    2927 C           12.5860    19.4838    13.2258 opls_157      1 RES        0.145000
    2928 O           13.5693    18.7387    13.9084 opls_154      1 RES       -0.683000
    2929 H           13.5319    18.9676    14.8245 opls_155      1 RES        0.418000
    2930 H           12.7229    19.4609    12.1447 opls_140      1 RES        0.060000
    2931 H           11.6703    18.9195    13.4025 opls_140      1 RES        0.060000
    2932 H           11.9131    20.9477    14.5011 opls_140      1 RES        0.060000
    2933 H           11.8915    21.5024    12.8300 opls_140      1 RES        0.060000
    2934 H           13.4171    21.5231    13.6815 opls_140      1 RES        0.060000
    2935 C           10.6216     7.3461     6.3021 opls_135      1 RES       -0.180000
    2936 C           10.5084     7.9205     7.7145 opls_157      1 RES        0.145000
    2937 O            9.3688     7.5529     8.4591 opls_154      1 RES       -0.683000
    2938 H            9.2360     6.6227     8.3579 opls_155      1 RES        0.418000
    2939 H           10.5881     8.9995     7.5821 opls_140      1 RES        0.060000
    2940 H           11.3375     7.6586     8.3718 opls_140      1 RES        0.060000
    2941 H           10.9950     6.3403     6.4945 opls_140      1 RES        0.060000
    2942 H           11.3794     7.8775     5.7263 opls_140      1 RES        0.060000
    2943 H            9.7185     7.3360     5.6917 opls_140      1 RES        0.060000
    2944 C            5.6445    13.5441    20.2928 opls_135      1 RES       -0.180000
    2945 C            5.4538    12.2073    21.0101 opls_157      1 RES        0.145000
    2946 O            6.2498    11.9810    22.1517 opls_154      1 RES       -0.683000
    2947 H            6.2363    12.7629    22.6823 opls_155      1 RES        0.418000
    2948 H            5.6104    11.4539    20.2381 opls_140      1 RES        0.060000
    2949 H            4.4393    12.0324    21.3682 opls_140      1 RES        0.060000
    2950 H            5.0572    14.2212    20.9132 opls_140      1 RES        0.060000
    2951 H            5.1896    13.5218    19.3025 opls_140      1 RES        0.060000
    2952 H            6.6664    13.8983    20.1572 opls_140      1 RES        0.060000
    2953 C           14.8683    10.5156    13.9230 opls_135      1 RES       -0.180000
    2954 C           14.4934     9.0628    14.2173 opls_157      1 RES        0.145000
    2955 O           15.1786     8.4333    15.2767 opls_154      1 RES       -0.683000
    2956 H           15.2054     9.0304    16.0087 opls_155      1 RES        0.418000
    2957 H           14.6287     8.5440    13.2682 opls_140      1 RES        0.060000
    2958 H           13.4433     8.9139    14.4688 opls_140      1 RES        0.060000
    2959 H           14.3089    11.0546    14.6876 opls_140      1 RES        0.060000
    2960 H           14.4859    10.8260    12.9506 opls_140      1 RES        0.060000
    2961 H           15.9276    10.7719    13.9361 opls_140      1 RES        0.060000
    2962 C           23.5010    31.5935    17.6087 opls_135      1 RES       -0.180000
    2963 C           22.4853    30.5866    17.0681 opls_157      1 RES        0.145000
    2964 O           22.2926    30.5680    15.6714 opls_154      1 RES       -0.683000
    2965 H           23.1404    30.5941    15.2548 opls_155      1 RES        0.418000
    2966 H           21.5654    30.8019    17.6119 opls_140      1 RES        0.060000
    2967 H           22.7138    29.5481    17.3076 opls_140      1 RES        0.060000
    2968 H           24.4470    31.0852    17.4222 opls_140      1 RES        0.060000
    2969 H           23.3943    31.7120    18.6870 opls_140      1 RES        0.060000
    2970 H           23.4866    32.5969    17.1832 opls_140      1 RES        0.060000
    2971 C           28.6108     8.2866    21.0398 opls_135      1 RES       -0.180000
    2972 C           29.7234     7.3307    20.6083 opls_157      1 RES        0.145000
    2973 O           29.3785     6.3405    19.6656 opls_154      1 RES       -0.683000
    2974 H           28.8674     6.7467    18.9824 opls_155      1 RES        0.418000
    2975 H           30.0999     6.9058    21.5387 opls_140      1 RES        0.060000
    2976 H           30.5856     7.8222    20.1576 opls_140      1 RES        0.060000
    2977 H           28.5854     8.9951    20.2118 opls_140      1 RES        0.060000
    2978 H           28.8962     8.8347    21.9376 opls_140      1 RES        0.060000
    2979 H           27.6293     7.8557    21.2379 opls_140      1 RES        0.060000
    2980 C            2.7840    10.5246    17.8872 opls_135      1 RES       -0.180000
    2981 C            2.6945    11.4559    19.0965 opls_157      1 RES        0.145000
    2982 O            2.3358    10.8661    20.3259 opls_154      1 RES       -0.683000
    2983 H            2.8333    10.0693    20.4288 opls_155      1 RES        0.418000
    2984 H            1.9997    12.2388    18.7924 opls_140      1 RES        0.060000
    2985 H            3.6218    11.9806    19.3266 opls_140      1 RES        0.060000
    2986 H            3.7635    10.0665    18.0245 opls_140      1 RES        0.060000
    2987 H            2.8111    11.0950    16.9588 opls_140      1 RES        0.060000
    2988 H            1.9978     9.7787    17.7703 opls_140      1 RES        0.060000
    2989 C            3.4897    21.1842    15.8694 opls_135      1 RES       -0.180000
    2990 C            4.2738    19.9068    16.1715 opls_157      1 RES        0.145000
    2991 O            5.6391    19.9026    15.8193 opls_154      1 RES       -0.683000
    2992 H            6.0200    20.7209    16.0992 opls_155      1 RES        0.418000
    2993 H            3.7139    19.1142    15.6751 opls_140      1 RES        0.060000
    2994 H            4.2814    19.6250    17.2244 opls_140      1 RES        0.060000
    2995 H            3.7710    21.8268    16.7037 opls_140      1 RES        0.060000
    2996 H            2.4164    21.0057    15.9346 opls_140      1 RES        0.060000
    2997 H            3.6666    21.6646    14.9071 opls_140      1 RES        0.060000
    2998 C           16.5032     2.5992    31.1408 opls_135      1 RES       -0.180000
    2999 C           15.4923     3.4587    31.9006 opls_157      1 RES        0.145000
    3000 O           14.2614     2.8522    32.2249 opls_154      1 RES       -0.683000
    3001 H           14.4371     1.9881    32.5647 opls_155      1 RES        0.418000
    3002 H           15.3675     4.3493    31.2847 opls_140      1 RES        0.060000
    3003 H           15.8531     3.8314    32.8593 opls_140      1 RES        0.060000
    3004 H           16.9382     1.9991    31.9400 opls_140      1 RES        0.060000
    3005 H           17.2968     3.2153    30.7181 opls_140      1 RES        0.060000
    3006 H           16.1235     1.9810    30.3273 opls_140      1 RES        0.060000
    3007 C            7.6223    11.1978     4.5832 opls_135      1 RES       -0.180000
    3008 C            7.8687    11.8007     3.1999 opls_157      1 RES        0.145000
    3009 O            9.0783    12.5026     3.0204 opls_154      1 RES       -0.683000
    3010 H            9.7766    11.9921     3.4009 opls_155      1 RES        0.418000
    3011 H            6.9945    12.4233     3.0092 opls_140      1 RES        0.060000
    3012 H            7.8741    11.0724     2.3889 opls_140      1 RES        0.060000
    3013 H            8.2180    10.2859     4.5436 opls_140      1 RES        0.060000
    3014 H            6.5781    10.9079     4.7001 opls_140      1 RES        0.060000
    3015 H            7.8729    11.8113     5.4487 opls_140      1 RES        0.060000
    3016 C           20.5057    34.0260    33.4137 opls_135      1 RES       -0.180000
    3017 C           20.4307    32.4999    33.4708 opls_157      1 RES        0.145000
    3018 O           21.6322    31.8159    33.7480 opls_154      1 RES       -0.683000
    3019 H           22.0650    32.2553    34.4640 opls_155      1 RES        0.418000
    3020 H           19.9972    32.2078    32.5143 opls_140      1 RES        0.060000
    3021 H           19.7391    32.1136    34.2195 opls_140      1 RES        0.060000
    3022 H           20.4877    34.2945    34.4699 opls_140      1 RES        0.060000
    3023 H           19.6112    34.4417    32.9498 opls_140      1 RES        0.060000
    3024 H           21.3574    34.4664    32.8954 opls_140      1 RES        0.060000
    3025 C           26.2424    18.7255     7.4258 opls_135      1 RES       -0.180000
    3026 C           24.7561    18.5444     7.7353 opls_157      1 RES        0.145000
    3027 O           24.0158    17.7419     6.8430 opls_154      1 RES       -0.683000
    3028 H           24.5179    16.9627     6.6588 opls_155      1 RES        0.418000
    3029 H           24.3625    19.5583     7.8069 opls_140      1 RES        0.060000
    3030 H           24.5529    18.0974     8.7084 opls_140      1 RES        0.060000
    3031 H           26.6692    17.7980     7.8078 opls_140      1 RES        0.060000
    3032 H           26.6623    19.5478     8.0051 opls_140      1 RES        0.060000
    3033 H           26.5195    18.9043     6.3869 opls_140      1 RES        0.060000
    3034 C           17.1497    12.8662     6.7146 opls_135      1 RES       -0.180000
    3035 C           15.8703    12.1437     7.1376 opls_157      1 RES        0.145000
    3036 O           14.8215    12.1078     6.1959 opls_154      1 RES       -0.683000
    3037 H           15.1868    11.8841     5.3536 opls_155      1 RES        0.418000
    3038 H           15.5756    12.6252     8.0700 opls_140      1 RES        0.060000
    3039 H           16.0141    11.0953     7.3989 opls_140      1 RES        0.060000
    3040 H           17.6437    12.1136     6.1000 opls_140      1 RES        0.060000
    3041 H           17.7877    13.0628     7.5762 opls_140      1 RES        0.060000
    3042 H           17.0387    13.8140     6.1878 opls_140      1 RES        0.060000
    3043 C           25.0184     2.9442    24.8122 opls_135      1 RES       -0.180000
    3044 C           26.0644     3.3176    25.8631 opls_157      1 RES        0.145000
    3045 O           25.5841     3.8782    27.0644 opls_154      1 RES       -0.683000
    3046 H           24.8423     3.3689    27.3535 opls_155      1 RES        0.418000
    3047 H           26.7560     3.9799    25.3426 opls_140      1 RES        0.060000
    3048 H           26.6786     2.4823    26.1995 opls_140      1 RES        0.060000
    3049 H           24.6523     1.9877    25.1851 opls_140      1 RES        0.060000
    3050 H           25.4869     2.7663    23.8442 opls_140      1 RES        0.060000
    3051 H           24.2076     3.6518    24.6392 opls_140      1 RES        0.060000
    3052 C           21.5904    13.1591    14.1424 opls_135      1 RES       -0.180000
    3053 C           21.0686    12.2316    13.0445 opls_157      1 RES        0.145000
    3054 O           21.0155    12.7616    11.7390 opls_154      1 RES       -0.683000
    3055 H           21.8257    13.2183    11.5713 opls_155      1 RES        0.418000
    3056 H           20.0919    11.9034    13.4001 opls_140      1 RES        0.060000
    3057 H           21.6438    11.3136    12.9236 opls_140      1 RES        0.060000
    3058 H           22.6694    13.0914    14.0040 opls_140      1 RES        0.060000
    3059 H           21.3564    12.7618    15.1301 opls_140      1 RES        0.060000
    3060 H           21.2421    14.1919    14.1328 opls_140      1 RES        0.060000
    3061 C           13.6372    27.8741     6.5150 opls_135      1 RES       -0.180000
    3062 C           12.2278    28.3811     6.2078 opls_157      1 RES        0.145000
    3063 O           11.8153    29.5517     6.8769 opls_154      1 RES       -0.683000
    3064 H           12.5199    30.1801     6.8367 opls_155      1 RES        0.418000
    3065 H           11.5766    27.5321     6.4155 opls_140      1 RES        0.060000
    3066 H           12.0553    28.6140     5.1571 opls_140      1 RES        0.060000
    3067 H           14.2533    28.5223     5.8917 opls_140      1 RES        0.060000
    3068 H           13.7677    26.8513     6.1615 opls_140      1 RES        0.060000
    3069 H           13.9576    27.8857     7.5568 opls_140      1 RES        0.060000
    3070 C           28.4892    30.2803     6.0790 opls_135      1 RES       -0.180000
    3071 C           27.8647    29.8009     7.3897 opls_157      1 RES        0.145000
    3072 O           28.6921    29.8215     8.5312 opls_154      1 RES       -0.683000
    3073 H           29.1541    30.6457     8.5476 opls_155      1 RES        0.418000
    3074 H           27.4870    28.8028     7.1679 opls_140      1 RES        0.060000
    3075 H           26.9872    30.3679     7.7008 opls_140      1 RES        0.060000
    3076 H           28.4281    31.3638     6.1805 opls_140      1 RES        0.060000
    3077 H           27.8740    29.9910     5.2270 opls_140      1 RES        0.060000
    3078 H           29.5033    29.9482     5.8566 opls_140      1 RES        0.060000
    3079 C           24.4367     8.3269    33.4996 opls_135      1 RES       -0.180000
    3080 C           25.7253     7.5266    33.3081 opls_157      1 RES        0.145000
    3081 O           26.8495     8.2374    32.8401 opls_154      1 RES       -0.683000
    3082 H           26.9104     9.0473    33.3232 opls_155      1 RES        0.418000
    3083 H           25.4466     6.7068    32.6460 opls_140      1 RES        0.060000
    3084 H           26.0895     7.0416    34.2137 opls_140      1 RES        0.060000
    3085 H           24.6094     8.8101    34.4612 opls_140      1 RES        0.060000
    3086 H           23.5798     7.6624    33.6106 opls_140      1 RES        0.060000
    3087 H           24.1736     9.0457    32.7235 opls_140      1 RES        0.060000
    3088 C           15.9899    20.8942     7.5440 opls_135      1 RES       -0.180000
    3089 C           16.5847    19.5886     7.0153 opls_157      1 RES        0.145000
    3090 O           15.7883    18.8458     6.1197 opls_154      1 RES       -0.683000
    3091 H           15.4203    19.4421     5.4856 opls_155      1 RES        0.418000
    3092 H           16.8455    19.0211     7.9087 opls_140      1 RES        0.060000
    3093 H           17.5255    19.7106     6.4785 opls_140      1 RES        0.060000
    3094 H           16.1721    21.5792     6.7160 opls_140      1 RES        0.060000
    3095 H           16.5518    21.2564     8.4049 opls_140      1 RES        0.060000
    3096 H           14.9411    20.8827     7.8404 opls_140      1 RES        0.060000
    3097 C           21.5726    27.7727     4.6197 opls_135      1 RES       -0.180000
    3098 C           20.1300    27.3227     4.8529 opls_157      1 RES        0.145000
    3099 O           19.1772    27.7263     3.8950 opls_154      1 RES       -0.683000
    3100 H           19.5421    27.5826     3.0352 opls_155      1 RES        0.418000
    3101 H           19.8879    27.6768     5.8549 opls_140      1 RES        0.060000
    3102 H           20.0009    26.2415     4.9009 opls_140      1 RES        0.060000
    3103 H           21.9193    27.0515     3.8795 opls_140      1 RES        0.060000
    3104 H           22.1717    27.6386     5.5204 opls_140      1 RES        0.060000
    3105 H           21.7299    28.8004     4.2924 opls_140      1 RES        0.060000
    3106 C           12.1156    22.5002    28.9117 opls_135      1 RES       -0.180000
    3107 C           12.2513    23.8693    29.5788 opls_157      1 RES        0.145000
    3108 O           12.3405    23.8829    30.9859 opls_154      1 RES       -0.683000
    3109 H           12.9486    23.2099    31.2510 opls_155      1 RES        0.418000
    3110 H           11.4004    24.4424    29.2106 opls_140      1 RES        0.060000
    3111 H           13.1268    24.4362    29.2625 opls_140      1 RES        0.060000
    3112 H           13.1456    22.1435    28.9122 opls_140      1 RES        0.060000
    3113 H           11.8001    22.6036    27.8735 opls_140      1 RES        0.060000
    3114 H           11.4358    21.7836    29.3728 opls_140      1 RES        0.060000
    3115 C            9.5633     8.1787    33.4350 opls_135      1 RES       -0.180000
    3116 C           11.0191     7.7509    33.6233 opls_157      1 RES        0.145000
    3117 O           11.9599     8.7795    33.8353 opls_154      1 RES       -0.683000
    3118 H           11.6011     9.3839    34.4669 opls_155      1 RES        0.418000
    3119 H           11.2484     7.1530    32.7412 opls_140      1 RES        0.060000
    3120 H           11.1825     7.0786    34.4655 opls_140      1 RES        0.060000
    3121 H            9.2407     8.3471    34.4625 opls_140      1 RES        0.060000
    3122 H            8.9675     7.3610    33.0294 opls_140      1 RES        0.060000
    3123 H            9.3739     9.0450    32.8011 opls_140      1 RES        0.060000
    3124 C           15.0808    15.3019     6.9298 opls_135      1 RES       -0.180000
    3125 C           15.4176    15.4953     8.4086 opls_157      1 RES        0.145000
    3126 O           15.9286    16.7550     8.7830 opls_154      1 RES       -0.683000
    3127 H           15.4051    17.4228     8.3672 opls_155      1 RES        0.418000
    3128 H           16.1029    14.6815     8.6455 opls_140      1 RES        0.060000
    3129 H           14.5726    15.3527     9.0822 opls_140      1 RES        0.060000
    3130 H           14.1087    15.7889     6.8520 opls_140      1 RES        0.060000
    3131 H           14.9430    14.2458     6.6978 opls_140      1 RES        0.060000
    3132 H           15.7909    15.6900     6.1995 opls_140      1 RES        0.060000
    3133 C            8.4501    29.3320     8.4417 opls_135      1 RES       -0.180000
    3134 C            7.0666    28.8555     7.9980 opls_157      1 RES        0.145000
    3135 O            6.9141    28.5343     6.6336 opls_154      1 RES       -0.683000
    3136 H            7.6572    28.0152     6.3664 opls_155      1 RES        0.418000
    3137 H            6.3861    29.6446     8.3179 opls_140      1 RES        0.060000
    3138 H            6.7159    27.9602     8.5113 opls_140      1 RES        0.060000
    3139 H            8.9945    28.3925     8.5378 opls_140      1 RES        0.060000
    3140 H            8.4043    29.7921     9.4288 opls_140      1 RES        0.060000
    3141 H            8.9680    30.0388     7.7935 opls_140      1 RES        0.060000
    3142 C           25.1784    17.2613    22.7578 opls_135      1 RES       -0.180000
    3143 C           25.7976    16.1234    21.9456 opls_157      1 RES        0.145000
    3144 O           25.1033    14.8962    21.9420 opls_154      1 RES       -0.683000
    3145 H           24.1854    15.0753    21.8066 opls_155      1 RES        0.418000
    3146 H           26.8117    16.0262    22.3332 opls_140      1 RES        0.060000
    3147 H           25.9246    16.3473    20.8864 opls_140      1 RES        0.060000
    3148 H           24.4058    17.6290    22.0825 opls_140      1 RES        0.060000
    3149 H           25.8977    18.0661    22.9096 opls_140      1 RES        0.060000
    3150 H           24.7770    17.0142    23.7406 opls_140      1 RES        0.060000
    3151 C           29.2962    33.5208    18.9588 opls_135      1 RES       -0.180000
    3152 C           28.0551    33.5891    18.0685 opls_157      1 RES        0.145000
    3153 O           28.1157    34.4607    16.9619 opls_154      1 RES       -0.683000
    3154 H           28.9494    34.3389    16.5340 opls_155      1 RES        0.418000
    3155 H           27.2397    33.8363    18.7483 opls_140      1 RES        0.060000
    3156 H           27.7689    32.6349    17.6260 opls_140      1 RES        0.060000
    3157 H           29.9472    32.8556    18.3915 opls_140      1 RES        0.060000
    3158 H           29.0679    33.0335    19.9067 opls_140      1 RES        0.060000
    3159 H           29.7888    34.4617    19.2043 opls_140      1 RES        0.060000
    3160 C           19.2688    33.1321    11.2248 opls_135      1 RES       -0.180000
    3161 C           19.9036    33.7937    12.4484 opls_157      1 RES        0.145000
    3162 O           20.4091    32.9327    13.4440 opls_154      1 RES       -0.683000
    3163 H           20.8996    32.2451    13.0202 opls_155      1 RES        0.418000
    3164 H           19.1347    34.4651    12.8305 opls_140      1 RES        0.060000
    3165 H           20.7496    34.4414    12.2183 opls_140      1 RES        0.060000
    3166 H           20.1432    32.8601    10.6336 opls_140      1 RES        0.060000
    3167 H           18.6900    33.8544    10.6492 opls_140      1 RES        0.060000
    3168 H           18.6137    32.2787    11.4003 opls_140      1 RES        0.060000
    3169 C           27.4666    17.6953     3.5270 opls_135      1 RES       -0.180000
    3170 C           26.6076    16.9118     4.5200 opls_157      1 RES        0.145000
    3171 O           27.2516    16.4422     5.6830 opls_154      1 RES       -0.683000
    3172 H           27.7850    17.1412     6.0293 opls_155      1 RES        0.418000
    3173 H           26.1709    16.1046     3.9319 opls_140      1 RES        0.060000
    3174 H           25.7536    17.4670     4.9081 opls_140      1 RES        0.060000
    3175 H           27.4983    18.6843     3.9841 opls_140      1 RES        0.060000
    3176 H           26.9612    17.7894     2.5659 opls_140      1 RES        0.060000
    3177 H           28.4648    17.3113     3.3165 opls_140      1 RES        0.060000
    3178 C            3.1144    26.4421    13.2416 opls_135      1 RES       -0.180000
    3179 C            3.0352    26.2132    11.7319 opls_157      1 RES        0.145000
    3180 O            3.2313    27.3408    10.9084 opls_154      1 RES       -0.683000
    3181 H            3.9772    27.8203    11.2352 opls_155      1 RES        0.418000
    3182 H            2.0630    25.7465    11.5731 opls_140      1 RES        0.060000
    3183 H            3.7566    25.4906    11.3505 opls_140      1 RES        0.060000
    3184 H            4.1907    26.4579    13.4133 opls_140      1 RES        0.060000
    3185 H            2.7036    25.5915    13.7855 opls_140      1 RES        0.060000
    3186 H            2.6249    27.3309    13.6397 opls_140      1 RES        0.060000
    3187 C            2.7753    25.1454     7.3106 opls_135      1 RES       -0.180000
    3188 C            3.7635    25.6448     6.2562 opls_157      1 RES        0.145000
    3189 O            3.4510    25.3630     4.9104 opls_154      1 RES       -0.683000
    3190 H            2.5362    25.5553     4.7720 opls_155      1 RES        0.418000
    3191 H            4.7241    25.2261     6.5564 opls_140      1 RES        0.060000
    3192 H            3.9163    26.7240     6.2617 opls_140      1 RES        0.060000
    3193 H            1.9941    25.9044     7.2681 opls_140      1 RES        0.060000
    3194 H            3.2186    25.1802     8.3058 opls_140      1 RES        0.060000
    3195 H            2.3741    24.1398     7.1845 opls_140      1 RES        0.060000
    3196 C           27.0612    13.4220     2.9783 opls_135      1 RES       -0.180000
    3197 C           28.2479    14.3848     2.9271 opls_157      1 RES        0.145000
    3198 O           28.4238    15.2340     4.0389 opls_154      1 RES       -0.683000
    3199 H           28.3169    14.7198     4.8245 opls_155      1 RES        0.418000
    3200 H           28.1155    14.9387     1.9977 opls_140      1 RES        0.060000
    3201 H           29.2166    13.8958     2.8243 opls_140      1 RES        0.060000
    3202 H           27.4455    12.6202     3.6087 opls_140      1 RES        0.060000
    3203 H           26.8590    13.0022     1.9929 opls_140      1 RES        0.060000
    3204 H           26.1141    13.8138     3.3490 opls_140      1 RES        0.060000
    3205 C            4.1002    15.9617     6.1654 opls_135      1 RES       -0.180000
    3206 C            2.5802    15.9168     6.0057 opls_157      1 RES        0.145000
    3207 O            1.9836    16.9893     5.3115 opls_154      1 RES       -0.683000
    3208 H            2.4956    17.1621     4.5363 opls_155      1 RES        0.418000
    3209 H            2.1978    15.8147     7.0213 opls_140      1 RES        0.060000
    3210 H            2.2115    15.0362     5.4795 opls_140      1 RES        0.060000
    3211 H            4.4419    15.6047     5.1938 opls_140      1 RES        0.060000
    3212 H            4.4329    15.2469     6.9180 opls_140      1 RES        0.060000
    3213 H            4.5480    16.9201     6.4282 opls_140      1 RES        0.060000
    3214 C           24.1436    24.6269    21.5055 opls_135      1 RES       -0.180000
    3215 C           22.6198    24.7361    21.5672 opls_157      1 RES        0.145000
    3216 O           22.0005    24.3003    22.7566 opls_154      1 RES       -0.683000
    3217 H           22.4893    24.6443    23.4885 opls_155      1 RES        0.418000
    3218 H           22.2673    24.1915    20.6912 opls_140      1 RES        0.060000
    3219 H           22.2382    25.7489    21.4376 opls_140      1 RES        0.060000
    3220 H           24.4579    25.5077    22.0655 opls_140      1 RES        0.060000
    3221 H           24.4999    24.7395    20.4815 opls_140      1 RES        0.060000
    3222 H           24.5964    23.7143    21.8931 opls_140      1 RES        0.060000
    3223 C           32.1475     2.8688    27.4010 opls_135      1 RES       -0.180000
    3224 C           31.7284     3.7311    28.5921 opls_157      1 RES        0.145000
    3225 O           30.5485     4.4885    28.4426 opls_154      1 RES       -0.683000
    3226 H           29.8879     3.9348    28.0551 opls_155      1 RES        0.418000
    3227 H           32.5980     4.3535    28.8031 opls_140      1 RES        0.060000
    3228 H           31.5570     3.1712    29.5114 opls_140      1 RES        0.060000
    3229 H           31.5006     1.9984    27.5112 opls_140      1 RES        0.060000
    3230 H           33.1786     2.5324    27.5088 opls_140      1 RES        0.060000
    3231 H           32.0680     3.3128    26.4087 opls_140      1 RES        0.060000
    3232 C           30.2096    23.1218    21.8117 opls_135      1 RES       -0.180000
    3233 C           30.8123    22.2013    22.8733 opls_157      1 RES        0.145000
    3234 O           30.6930    22.6175    24.2152 opls_154      1 RES       -0.683000
    3235 H           29.8080    22.9182    24.3547 opls_155      1 RES        0.418000
    3236 H           31.8509    22.0705    22.5694 opls_140      1 RES        0.060000
    3237 H           30.3955    21.1941    22.8810 opls_140      1 RES        0.060000
    3238 H           29.1513    22.8656    21.8623 opls_140      1 RES        0.060000
    3239 H           30.5688    22.8556    20.8176 opls_140      1 RES        0.060000
    3240 H           30.3755    24.1931    21.9252 opls_140      1 RES        0.060000
    3241 C           24.5365    33.5409    14.8676 opls_135      1 RES       -0.180000
    3242 C           25.5688    32.6399    15.5463 opls_157      1 RES        0.145000
    3243 O           26.9072    32.7806    15.1258 opls_154      1 RES       -0.683000
    3244 H           27.1058    33.7030    15.0726 opls_155      1 RES        0.418000
    3245 H           25.1915    31.6277    15.4007 opls_140      1 RES        0.060000
    3246 H           25.6273    32.7624    16.6278 opls_140      1 RES        0.060000
    3247 H           24.6704    34.4822    15.4006 opls_140      1 RES        0.060000
    3248 H           23.5241    33.1884    15.0647 opls_140      1 RES        0.060000
    3249 H           24.6161    33.6686    13.7881 opls_140      1 RES        0.060000
    3250 C           27.1452    29.8672    16.8236 opls_135      1 RES       -0.180000
    3251 C           28.0820    30.1395    15.6462 opls_157      1 RES        0.145000
    3252 O           27.5357    29.9941    14.3545 opls_154      1 RES       -0.683000
    3253 H           26.6898    30.4152    14.3412 opls_155      1 RES        0.418000
    3254 H           28.9352    29.4821    15.8132 opls_140      1 RES        0.060000
    3255 H           28.5033    31.1447    15.6329 opls_140      1 RES        0.060000
    3256 H           26.5838    30.7993    16.8882 opls_140      1 RES        0.060000
    3257 H           27.7085    29.7535    17.7498 opls_140      1 RES        0.060000
    3258 H           26.4888    29.0001    16.7510 opls_140      1 RES        0.060000
    3259 C            3.2643    14.4597    23.4188 opls_135      1 RES       -0.180000
    3260 C            4.6933    14.8219    23.8247 opls_157      1 RES        0.145000
    3261 O            5.3074    13.9957    24.7882 opls_154      1 RES       -0.683000
    3262 H            5.1378    13.0950    24.5579 opls_155      1 RES        0.418000
    3263 H            4.6351    15.8620    24.1453 opls_140      1 RES        0.060000
    3264 H            5.4057    14.8242    22.9998 opls_140      1 RES        0.060000
    3265 H            3.4277    13.6482    22.7097 opls_140      1 RES        0.060000
    3266 H            2.7934    15.2820    22.8802 opls_140      1 RES        0.060000
    3267 H            2.5751    14.1741    24.2135 opls_140      1 RES        0.060000
    3268 C           19.0513     5.7775    28.0258 opls_135      1 RES       -0.180000
    3269 C           18.0047     6.8889    28.1117 opls_157      1 RES        0.145000
    3270 O           16.6883     6.5506    27.7368 opls_154      1 RES       -0.683000
    3271 H           16.4715     5.7202    28.1324 opls_155      1 RES        0.418000
    3272 H           18.4128     7.7009    27.5097 opls_140      1 RES        0.060000
    3273 H           17.8846     7.3143    29.1081 opls_140      1 RES        0.060000
    3274 H           18.8667     5.2195    28.9438 opls_140      1 RES        0.060000
    3275 H           20.0594     6.1880    28.0834 opls_140      1 RES        0.060000
    3276 H           19.0277     5.1344    27.1461 opls_140      1 RES        0.060000
    3277 C           18.4842    31.1185    14.0999 opls_135      1 RES       -0.180000
    3278 C           19.2146    30.2931    15.1597 opls_157      1 RES        0.145000
    3279 O           19.0268    30.6774    16.5033 opls_154      1 RES       -0.683000
    3280 H           18.1058    30.8393    16.6393 opls_155      1 RES        0.418000
    3281 H           20.2625    30.3237    14.8611 opls_140      1 RES        0.060000
    3282 H           18.9556    29.2343    15.1590 opls_140      1 RES        0.060000
    3283 H           17.4770    30.7042    14.1428 opls_140      1 RES        0.060000
    3284 H           18.8847    30.9167    13.1064 opls_140      1 RES        0.060000
    3285 H           18.4850    32.2018    14.2207 opls_140      1 RES        0.060000
    3286 C           20.2408    30.3371    27.2124 opls_135      1 RES       -0.180000
    3287 C           19.5889    31.0893    26.0517 opls_157      1 RES        0.145000
    3288 O           20.0206    30.7490    24.7533 opls_154      1 RES       -0.683000
    3289 H           20.0596    29.8068    24.6913 opls_155      1 RES        0.418000
    3290 H           19.7485    32.1431    26.2801 opls_140      1 RES        0.060000
    3291 H           18.5060    30.9770    25.9978 opls_140      1 RES        0.060000
    3292 H           19.6927    29.3949    27.2096 opls_140      1 RES        0.060000
    3293 H           20.0395    30.8360    28.1604 opls_140      1 RES        0.060000
    3294 H           21.3187    30.1819    27.1660 opls_140      1 RES        0.060000
    3295 C           27.5779     4.5740    33.6666 opls_135      1 RES       -0.180000
    3296 C           28.1960     5.0196    32.3410 opls_157      1 RES        0.145000
    3297 O           28.2509     4.0574    31.3118 opls_154      1 RES       -0.683000
    3298 H           27.4161     3.6161    31.2737 opls_155      1 RES        0.418000
    3299 H           29.1822     5.3988    32.6087 opls_140      1 RES        0.060000
    3300 H           27.6904     5.8644    31.8732 opls_140      1 RES        0.060000
    3301 H           26.5109     4.6470    33.4563 opls_140      1 RES        0.060000
    3302 H           27.8094     5.2835    34.4610 opls_140      1 RES        0.060000
    3303 H           27.8531     3.5881    34.0411 opls_140      1 RES        0.060000
    3304 C           12.6545    30.6213    16.3345 opls_135      1 RES       -0.180000
    3305 C           13.4189    31.3777    15.2476 opls_157      1 RES        0.145000
    3306 O           13.2505    30.9258    13.9226 opls_154      1 RES       -0.683000
    3307 H           12.3296    30.7715    13.7768 opls_155      1 RES        0.418000
    3308 H           14.4601    31.3464    15.5684 opls_140      1 RES        0.060000
    3309 H           13.1779    32.4391    15.1873 opls_140      1 RES        0.060000
    3310 H           11.6553    31.0487    16.2496 opls_140      1 RES        0.060000
    3311 H           13.0390    30.8692    17.3238 opls_140      1 RES        0.060000
    3312 H           12.6392    29.5333    16.2710 opls_140      1 RES        0.060000
    3313 C            2.8843     3.3063    30.5875 opls_135      1 RES       -0.180000
    3314 C            2.6527     2.9137    29.1280 opls_157      1 RES        0.145000
    3315 O            3.7952     2.5789    28.3725 opls_154      1 RES       -0.683000
    3316 H            4.3383     2.0076    28.8937 opls_155      1 RES        0.418000
    3317 H            2.1018     3.7512    28.6999 opls_140      1 RES        0.060000
    3318 H            1.9979     2.0525    28.9949 opls_140      1 RES        0.060000
    3319 H            2.9953     2.3351    31.0697 opls_140      1 RES        0.060000
    3320 H            1.9994     3.7858    31.0058 opls_140      1 RES        0.060000
    3321 H            3.7252     3.9660    30.8012 opls_140      1 RES        0.060000
    3322 C           26.8865    16.9507    28.6293 opls_135      1 RES       -0.180000
    3323 C           27.5421    18.2061    28.0533 opls_157      1 RES        0.145000
    3324 O           28.9098    18.1129    27.7236 opls_154      1 RES       -0.683000
    3325 H           29.0485    17.3007    27.2608 opls_155      1 RES        0.418000
    3326 H           27.3441    18.9849    28.7898 opls_140      1 RES        0.060000
    3327 H           27.0826    18.5691    27.1339 opls_140      1 RES        0.060000
    3328 H           26.6942    16.3622    27.7322 opls_140      1 RES        0.060000
    3329 H           25.9245    17.1884    29.0834 opls_140      1 RES        0.060000
    3330 H           27.4502    16.3877    29.3732 opls_140      1 RES        0.060000
    3331 C           32.1329     3.0910    22.0874 opls_135      1 RES       -0.180000
    3332 C           33.6394     3.2411    22.3010 opls_157      1 RES        0.145000
    3333 O           34.4599     3.0805    21.1657 opls_154      1 RES       -0.683000
    3334 H           34.0739     3.5624    20.4503 opls_155      1 RES        0.418000
    3335 H           33.8793     2.5299    23.0914 opls_140      1 RES        0.060000
    3336 H           33.9405     4.2106    22.6979 opls_140      1 RES        0.060000
    3337 H           31.8629     4.0642    21.6774 opls_140      1 RES        0.060000
    3338 H           31.6151     2.9762    23.0396 opls_140      1 RES        0.060000
    3339 H           31.7965     2.2728    21.4506 opls_140      1 RES        0.060000
    3340 C           23.5891     9.9753    21.3559 opls_135      1 RES       -0.180000
    3341 C           23.9363    10.8318    22.5740 opls_157      1 RES        0.145000
    3342 O           23.2058    10.5819    23.7539 opls_154      1 RES       -0.683000
    3343 H           23.1590     9.6467    23.8811 opls_155      1 RES        0.418000
    3344 H           23.8299    11.8602    22.2291 opls_140      1 RES        0.060000
    3345 H           24.9748    10.7520    22.8957 opls_140      1 RES        0.060000
    3346 H           24.1263     9.0507    21.5670 opls_140      1 RES        0.060000
    3347 H           24.0103    10.4043    20.4467 opls_140      1 RES        0.060000
    3348 H           22.5330     9.7963    21.1543 opls_140      1 RES        0.060000
    3349 C           14.0278    32.9293     6.1356 opls_135      1 RES       -0.180000
    3350 C           12.8860    33.6290     5.3977 opls_157      1 RES        0.145000
    3351 O           12.1082    32.8326     4.5323 opls_154      1 RES       -0.683000
    3352 H           11.9054    32.0234     4.9762 opls_155      1 RES        0.418000
    3353 H           13.3601    34.4634     4.8810 opls_140      1 RES        0.060000
    3354 H           12.1467    34.0906     6.0523 opls_140      1 RES        0.060000
    3355 H           13.5028    32.4403     6.9562 opls_140      1 RES        0.060000
    3356 H           14.7148    33.6572     6.5673 opls_140      1 RES        0.060000
    3357 H           14.6368    32.2277     5.5656 opls_140      1 RES        0.060000
    3358 C           11.9396    16.0608     9.1541 opls_135      1 RES       -0.180000
    3359 C           12.8210    17.3100     9.1340 opls_157      1 RES        0.145000
    3360 O           12.2127    18.5215     9.5220 opls_154      1 RES       -0.683000
    3361 H           11.7057    18.3617    10.3033 opls_155      1 RES        0.418000
    3362 H           13.2203    17.3511     8.1206 opls_140      1 RES        0.060000
    3363 H           13.6990    17.2484     9.7770 opls_140      1 RES        0.060000
    3364 H           11.9434    15.7963    10.2115 opls_140      1 RES        0.060000
    3365 H           12.4102    15.2447     8.6057 opls_140      1 RES        0.060000
    3366 H           10.9274    16.1557     8.7612 opls_140      1 RES        0.060000
    3367 C            9.8367    12.0669    22.1024 opls_135      1 RES       -0.180000
    3368 C            8.9838    11.7289    20.8793 opls_157      1 RES        0.145000
    3369 O            9.6235    11.7880    19.6241 opls_154      1 RES       -0.683000
    3370 H           10.4626    11.3598    19.6987 opls_155      1 RES        0.418000
    3371 H            8.1293    12.4027    20.9425 opls_140      1 RES        0.060000
    3372 H            8.5514    10.7284    20.8980 opls_140      1 RES        0.060000
    3373 H           10.3798    11.1361    22.2656 opls_140      1 RES        0.060000
    3374 H            9.2097    12.2435    22.9763 opls_140      1 RES        0.060000
    3375 H           10.5079    12.9222    22.0239 opls_140      1 RES        0.060000
    3376 C            2.9223     7.1310    17.7933 opls_135      1 RES       -0.180000
    3377 C            3.3412     7.5164    16.3742 opls_157      1 RES        0.145000
    3378 O            4.6784     7.2517    16.0138 opls_154      1 RES       -0.683000
    3379 H            4.8981     6.3813    16.3088 opls_155      1 RES        0.418000
    3380 H            3.0889     8.5734    16.2884 opls_140      1 RES        0.060000
    3381 H            2.7642     7.0277    15.5892 opls_140      1 RES        0.060000
    3382 H            2.7495     6.0591    17.6965 opls_140      1 RES        0.060000
    3383 H            1.9738     7.5979    18.0587 opls_140      1 RES        0.060000
    3384 H            3.6178     7.3606    18.6005 opls_140      1 RES        0.060000
    3385 C           27.3704    16.7819    18.3173 opls_135      1 RES       -0.180000
    3386 C           26.1039    16.2578    17.6397 opls_157      1 RES        0.145000
    3387 O           26.2838    15.4362    16.5080 opls_154      1 RES       -0.683000
    3388 H           26.9625    14.8081    16.7026 opls_155      1 RES        0.418000
    3389 H           25.5193    17.1504    17.4168 opls_140      1 RES        0.060000
    3390 H           25.4636    15.6606    18.2889 opls_140      1 RES        0.060000
    3391 H           27.6821    15.9237    18.9125 opls_140      1 RES        0.060000
    3392 H           27.1354    17.5950    19.0041 opls_140      1 RES        0.060000
    3393 H           28.1711    17.1427    17.6716 opls_140      1 RES        0.060000
    3394 C           17.0061    32.6658     2.9115 opls_135      1 RES       -0.180000
    3395 C           17.4620    31.2107     2.7991 opls_157      1 RES        0.145000
    3396 O           18.5943    30.9612     1.9967 opls_154      1 RES       -0.683000
    3397 H           19.2527    31.6065     2.2043 opls_155      1 RES        0.418000
    3398 H           16.5806    30.6701     2.4541 opls_140      1 RES        0.060000
    3399 H           17.7178    30.7472     3.7519 opls_140      1 RES        0.060000
    3400 H           17.6974    33.0644     3.6540 opls_140      1 RES        0.060000
    3401 H           16.0004    32.7267     3.3273 opls_140      1 RES        0.060000
    3402 H           17.0009    33.2609     1.9983 opls_140      1 RES        0.060000
    3403 C           17.0991    17.6701    25.7122 opls_135      1 RES       -0.180000
    3404 C           17.9991    17.5155    26.9386 opls_157      1 RES        0.145000
    3405 O           19.0425    16.5718    26.8444 opls_154      1 RES       -0.683000
    3406 H           19.4666    16.6813    26.0070 opls_155      1 RES        0.418000
    3407 H           17.3149    17.2983    27.7588 opls_140      1 RES        0.060000
    3408 H           18.5099    18.4310    27.2370 opls_140      1 RES        0.060000
    3409 H           17.7020    18.3084    25.0663 opls_140      1 RES        0.060000
    3410 H           16.1900    18.2162    25.9641 opls_140      1 RES        0.060000
    3411 H           16.7832    16.7586    25.2048 opls_140      1 RES        0.060000
    3412 C            9.6071     2.8425     8.1952 opls_135      1 RES       -0.180000
    3413 C            8.9730     3.8835     7.2722 opls_157      1 RES        0.145000
    3414 O            7.6881     4.3448     7.6247 opls_154      1 RES       -0.683000
    3415 H            7.6828     4.5275     8.5519 opls_155      1 RES        0.418000
    3416 H            8.9936     3.4260     6.2830 opls_140      1 RES        0.060000
    3417 H            9.5529     4.8005     7.1669 opls_140      1 RES        0.060000
    3418 H            9.9843     3.4603     9.0101 opls_140      1 RES        0.060000
    3419 H           10.4625     2.3673     7.7149 opls_140      1 RES        0.060000
    3420 H            8.9671     2.0374     8.5564 opls_140      1 RES        0.060000
    3421 C           31.2369    11.2785    30.5397 opls_135      1 RES       -0.180000
    3422 C           30.7924    12.5582    29.8308 opls_157      1 RES        0.145000
    3423 O           29.4136    12.8518    29.8579 opls_154      1 RES       -0.683000
    3424 H           29.0979    12.7121    30.7376 opls_155      1 RES        0.418000
    3425 H           31.1768    12.4603    28.8156 opls_140      1 RES        0.060000
    3426 H           31.2540    13.4670    30.2170 opls_140      1 RES        0.060000
    3427 H           31.2608    11.5927    31.5832 opls_140      1 RES        0.060000
    3428 H           32.2524    11.0072    30.2509 opls_140      1 RES        0.060000
    3429 H           30.6250    10.3880    30.3960 opls_140      1 RES        0.060000
    3430 C           24.3962     7.4267     8.1072 opls_135      1 RES       -0.180000
    3431 C           24.9507     6.1463     7.4821 opls_157      1 RES        0.145000
    3432 O           24.1956     5.5711     6.4394 opls_154      1 RES       -0.683000
    3433 H           23.9301     6.2607     5.8504 opls_155      1 RES        0.418000
    3434 H           25.0871     5.4646     8.3216 opls_140      1 RES        0.060000
    3435 H           25.9444     6.2547     7.0472 opls_140      1 RES        0.060000
    3436 H           24.7014     8.1836     7.3846 opls_140      1 RES        0.060000
    3437 H           24.8965     7.6467     9.0503 opls_140      1 RES        0.060000
    3438 H           23.3255     7.4630     8.3079 opls_140      1 RES        0.060000
    3439 C            2.9177    23.6826    33.4156 opls_135      1 RES       -0.180000
    3440 C            2.6139    22.4061    32.6306 opls_157      1 RES        0.145000
    3441 O            2.0197    22.5681    31.3622 opls_154      1 RES       -0.683000
    3442 H            2.4770    23.2582    30.9066 opls_155      1 RES        0.418000
    3443 H            2.0010    21.8064    33.3034 opls_140      1 RES        0.060000
    3444 H            3.4882    21.7884    32.4254 opls_140      1 RES        0.060000
    3445 H            3.8465    24.0180    32.9543 opls_140      1 RES        0.060000
    3446 H            3.1289    23.4549    34.4605 opls_140      1 RES        0.060000
    3447 H            2.1572    24.4634    33.4156 opls_140      1 RES        0.060000
    3448 C           12.2955    30.5668    33.5461 opls_135      1 RES       -0.180000
    3449 C           13.5822    30.1458    32.8355 opls_157      1 RES        0.145000
    3450 O           14.7505    30.0848    33.6227 opls_154      1 RES       -0.683000
    3451 H           14.5396    29.6461    34.4327 opls_155      1 RES        0.418000
    3452 H           13.6786    30.8412    32.0017 opls_140      1 RES        0.060000
    3453 H           13.5355    29.1602    32.3722 opls_140      1 RES        0.060000
    3454 H           11.9924    29.6413    34.0356 opls_140      1 RES        0.060000
    3455 H           11.5219    30.8302    32.8248 opls_140      1 RES        0.060000
    3456 H           12.3604    31.3975    34.2489 opls_140      1 RES        0.060000
    3457 C           21.2244    16.7702    13.7310 opls_135      1 RES       -0.180000
    3458 C           20.2028    16.5690    14.8508 opls_157      1 RES        0.145000
    3459 O           20.7063    16.5188    16.1669 opls_154      1 RES       -0.683000
    3460 H           21.3317    17.2195    16.2719 opls_155      1 RES        0.418000
    3461 H           19.6659    15.6611    14.5761 opls_140      1 RES        0.060000
    3462 H           19.4358    17.3418    14.9007 opls_140      1 RES        0.060000
    3463 H           21.3984    17.8454    13.7720 opls_140      1 RES        0.060000
    3464 H           20.7860    16.5412    12.7597 opls_140      1 RES        0.060000
    3465 H           22.1537    16.2041    13.7934 opls_140      1 RES        0.060000
    3466 C           33.6719    22.6769    20.3438 opls_135      1 RES       -0.180000
    3467 C           33.8810    21.3334    21.0431 opls_157      1 RES        0.145000
    3468 O           34.4660    21.3704    22.3255 opls_154      1 RES       -0.683000
    3469 H           34.0478    22.0568    22.8224 opls_155      1 RES        0.418000
    3470 H           34.4636    20.7414    20.3373 opls_140      1 RES        0.060000
    3471 H           32.9657    20.7619    21.1970 opls_140      1 RES        0.060000
    3472 H           32.7601    23.0408    20.8175 opls_140      1 RES        0.060000
    3473 H           33.4617    22.5345    19.2838 opls_140      1 RES        0.060000
    3474 H           34.4813    23.4045    20.4046 opls_140      1 RES        0.060000
    3475 C           10.4253    26.0004    17.6874 opls_135      1 RES       -0.180000
    3476 C           11.9048    26.3401    17.5040 opls_157      1 RES        0.145000
    3477 O           12.2370    27.7085    17.4314 opls_154      1 RES       -0.683000
    3478 H           11.7697    28.1636    18.1151 opls_155      1 RES        0.418000
    3479 H           12.2065    25.7911    16.6119 opls_140      1 RES        0.060000
    3480 H           12.5520    25.9625    18.2956 opls_140      1 RES        0.060000
    3481 H           10.2873    26.1547    18.7576 opls_140      1 RES        0.060000
    3482 H           10.2396    24.9472    17.4768 opls_140      1 RES        0.060000
    3483 H            9.7046    26.5667    17.0975 opls_140      1 RES        0.060000
    3484 C           29.1854    16.9931    22.3476 opls_135      1 RES       -0.180000
    3485 C           30.4010    17.5249    21.5879 opls_157      1 RES        0.145000
    3486 O           30.6781    16.9311    20.3394 opls_154      1 RES       -0.683000
    3487 H           29.8670    16.8559    19.8604 opls_155      1 RES        0.418000
    3488 H           31.2303    17.4264    22.2884 opls_140      1 RES        0.060000
    3489 H           30.3549    18.5896    21.3590 opls_140      1 RES        0.060000
    3490 H           28.3631    17.5075    21.8503 opls_140      1 RES        0.060000
    3491 H           29.2027    17.3213    23.3869 opls_140      1 RES        0.060000
    3492 H           29.0393    15.9131    22.3656 opls_140      1 RES        0.060000
    3493 C            2.8006    18.1214    10.0759 opls_135      1 RES       -0.180000
    3494 C            2.5797    17.9616    11.5804 opls_157      1 RES        0.145000
    3495 O            2.0010    16.7500    12.0111 opls_154      1 RES       -0.683000
    3496 H            2.4292    16.0396    11.5584 opls_155      1 RES        0.418000
    3497 H            1.9873    18.8304    11.8673 opls_140      1 RES        0.060000
    3498 H            3.4892    18.0356    12.1765 opls_140      1 RES        0.060000
    3499 H            3.7186    17.5549     9.9191 opls_140      1 RES        0.060000
    3500 H            3.0044    19.1616     9.8217 opls_140      1 RES        0.060000
    3501 H            1.9998    17.7913     9.4143 opls_140      1 RES        0.060000
    3502 C           13.5528    26.5694    32.1674 opls_135      1 RES       -0.180000
    3503 C           13.9719    25.8567    33.4536 opls_157      1 RES        0.145000
    3504 O           14.7136    26.6125    34.3845 opls_154      1 RES       -0.683000
    3505 H           14.3037    27.4594    34.4726 opls_155      1 RES        0.418000
    3506 H           14.5083    24.9697    33.1166 opls_140      1 RES        0.060000
    3507 H           13.1398    25.4717    34.0432 opls_140      1 RES        0.060000
    3508 H           12.6816    27.1368    32.4950 opls_140      1 RES        0.060000
    3509 H           13.2195    25.8526    31.4170 opls_140      1 RES        0.060000
    3510 H           14.2941    27.2044    31.6824 opls_140      1 RES        0.060000
    3511 C           22.5140    13.7010    23.6012 opls_135      1 RES       -0.180000
    3512 C           22.1984    15.1442    23.9955 opls_157      1 RES        0.145000
    3513 O           20.9187    15.6290    23.6557 opls_154      1 RES       -0.683000
    3514 H           20.2817    14.9688    23.8828 opls_155      1 RES        0.418000
    3515 H           22.9986    15.7346    23.5492 opls_140      1 RES        0.060000
    3516 H           22.2699    15.3416    25.0651 opls_140      1 RES        0.060000
    3517 H           22.0214    13.1358    24.3924 opls_140      1 RES        0.060000
    3518 H           23.5840    13.5049    23.6694 opls_140      1 RES        0.060000
    3519 H           22.2008    13.3728    22.6101 opls_140      1 RES        0.060000
    3520 C           14.0822    33.4742    23.1698 opls_135      1 RES       -0.180000
    3521 C           14.5906    33.5446    21.7295 opls_157      1 RES        0.145000
    3522 O           15.2572    32.4044    21.2360 opls_154      1 RES       -0.683000
    3523 H           14.7592    31.6400    21.4825 opls_155      1 RES        0.418000
    3524 H           15.2157    34.4371    21.6997 opls_140      1 RES        0.060000
    3525 H           13.8119    33.7252    20.9885 opls_140      1 RES        0.060000
    3526 H           13.1587    32.9061    23.0578 opls_140      1 RES        0.060000
    3527 H           13.8197    34.4660    23.5379 opls_140      1 RES        0.060000
    3528 H           14.7450    33.0324    23.9138 opls_140      1 RES        0.060000
    3529 C            7.8397    11.9760    25.6635 opls_135      1 RES       -0.180000
    3530 C            9.1345    12.7558    25.8946 opls_157      1 RES        0.145000
    3531 O           10.3406    12.0740    25.6328 opls_154      1 RES       -0.683000
    3532 H           10.2508    11.6179    24.8101 opls_155      1 RES        0.418000
    3533 H            9.0685    13.1030    26.9257 opls_140      1 RES        0.060000
    3534 H            9.2214    13.6650    25.2996 opls_140      1 RES        0.060000
    3535 H            7.7194    12.0496    24.5827 opls_140      1 RES        0.060000
    3536 H            6.9933    12.4824    26.1274 opls_140      1 RES        0.060000
    3537 H            7.8096    10.9422    26.0076 opls_140      1 RES        0.060000
    3538 C           32.6767    22.7931    12.3164 opls_135      1 RES       -0.180000
    3539 C           31.3928    22.0314    11.9857 opls_157      1 RES        0.145000
    3540 O           31.3865    20.6489    12.2626 opls_154      1 RES       -0.683000
    3541 H           31.7596    20.5168    13.1208 opls_155      1 RES        0.418000
    3542 H           31.2070    22.2455    10.9332 opls_140      1 RES        0.060000
    3543 H           30.5080    22.3993    12.5051 opls_140      1 RES        0.060000
    3544 H           32.5806    22.9455    13.3914 opls_140      1 RES        0.060000
    3545 H           32.6800    23.7737    11.8406 opls_140      1 RES        0.060000
    3546 H           33.6223    22.3180    12.0548 opls_140      1 RES        0.060000
    3547 C           25.9579    24.3910    26.2846 opls_135      1 RES       -0.180000
    3548 C           25.8429    25.0671    24.9180 opls_157      1 RES        0.145000
    3549 O           25.4999    24.2404    23.8285 opls_154      1 RES       -0.683000
    3550 H           24.7883    23.6787    24.0950 opls_155      1 RES        0.418000
    3551 H           26.8006    25.5675    24.7750 opls_140      1 RES        0.060000
    3552 H           25.1022    25.8657    24.8749 opls_140      1 RES        0.060000
    3553 H           24.9142    24.3156    26.5899 opls_140      1 RES        0.060000
    3554 H           26.4666    25.0401    26.9974 opls_140      1 RES        0.060000
    3555 H           26.4653    23.4272    26.3253 opls_140      1 RES        0.060000
    3556 C            2.8750    16.4039    25.9805 opls_135      1 RES       -0.180000
    3557 C            3.5040    17.7438    26.3636 opls_157      1 RES        0.145000
    3558 O            2.9389    18.8983    25.7841 opls_154      1 RES       -0.683000
    3559 H            1.9982    18.8291    25.8423 opls_155      1 RES        0.418000
    3560 H            4.5612    17.6326    26.1226 opls_140      1 RES        0.060000
    3561 H            3.4831    17.9587    27.4320 opls_140      1 RES        0.060000
    3562 H            1.9960    16.3726    26.6243 opls_140      1 RES        0.060000
    3563 H            3.5240    15.5752    26.2636 opls_140      1 RES        0.060000
    3564 H            2.6181    16.2528    24.9321 opls_140      1 RES        0.060000
    3565 C            6.3306     8.0712    11.7079 opls_135      1 RES       -0.180000
    3566 C            6.0813     8.6532    13.0997 opls_157      1 RES        0.145000
    3567 O            5.2373     9.7804    13.1737 opls_154      1 RES       -0.683000
    3568 H            4.4816     9.6212    12.6291 opls_155      1 RES        0.418000
    3569 H            7.0758     8.8515    13.4993 opls_140      1 RES        0.060000
    3570 H            5.6328     7.9525    13.8039 opls_140      1 RES        0.060000
    3571 H            5.4276     7.4838    11.5416 opls_140      1 RES        0.060000
    3572 H            7.1766     7.3840    11.7202 opls_140      1 RES        0.060000
    3573 H            6.5143     8.7752    10.8963 opls_140      1 RES        0.060000
    3574 C           10.5321    30.9281    11.1780 opls_135      1 RES       -0.180000
    3575 C           10.6658    31.2983     9.7005 opls_157      1 RES        0.145000
    3576 O           11.2346    30.3262     8.8522 opls_154      1 RES       -0.683000
    3577 H           10.8439    29.4901     9.0556 opls_155      1 RES        0.418000
    3578 H           11.2280    32.2321     9.6986 opls_140      1 RES        0.060000
    3579 H            9.7215    31.5408     9.2129 opls_140      1 RES        0.060000
    3580 H            9.6330    30.3119    11.1780 opls_140      1 RES        0.060000
    3581 H           10.3293    31.8118    11.7830 opls_140      1 RES        0.060000
    3582 H           11.3753    30.4191    11.6450 opls_140      1 RES        0.060000
    3583 C           15.2491     8.7823    10.4612 opls_135      1 RES       -0.180000
    3584 C           13.7375     8.7485    10.6887 opls_157      1 RES        0.145000
    3585 O           12.9229     9.0854     9.5882 opls_154      1 RES       -0.683000
    3586 H           13.2561     8.6386     8.8250 opls_155      1 RES        0.418000
    3587 H           13.5714     9.4027    11.5446 opls_140      1 RES        0.060000
    3588 H           13.3538     7.7775    11.0019 opls_140      1 RES        0.060000
    3589 H           15.4252     7.8306     9.9599 opls_140      1 RES        0.060000
    3590 H           15.7852     8.7624    11.4101 opls_140      1 RES        0.060000
    3591 H           15.6516     9.6221     9.8948 opls_140      1 RES        0.060000
    3592 C           11.0426     2.7983    12.6662 opls_135      1 RES       -0.180000
    3593 C            9.8235     2.5955    13.5665 opls_157      1 RES        0.145000
    3594 O           10.0611     2.0382    14.8396 opls_154      1 RES       -0.683000
    3595 H           10.8113     2.4713    15.2175 opls_155      1 RES        0.418000
    3596 H            9.1363     1.9943    12.9711 opls_140      1 RES        0.060000
    3597 H            9.2734     3.5103    13.7874 opls_140      1 RES        0.060000
    3598 H           11.4657     3.7222    13.0604 opls_140      1 RES        0.060000
    3599 H           10.7381     2.9851    11.6364 opls_140      1 RES        0.060000
    3600 H           11.7785     1.9950    12.6314 opls_140      1 RES        0.060000
    3601 C           19.8081    24.3317    33.4844 opls_135      1 RES       -0.180000
    3602 C           18.4623    23.6486    33.7297 opls_157      1 RES        0.145000
    3603 O           17.6629    23.3970    32.5958 opls_154      1 RES       -0.683000
    3604 H           18.2144    23.0365    31.9184 opls_155      1 RES        0.418000
    3605 H           17.9594    24.2818    34.4607 opls_140      1 RES        0.060000
    3606 H           18.5367    22.6732    34.2105 opls_140      1 RES        0.060000
    3607 H           20.4292    23.4991    33.1541 opls_140      1 RES        0.060000
    3608 H           20.2274    24.7097    34.4168 opls_140      1 RES        0.060000
    3609 H           19.8273    25.1605    32.7769 opls_140      1 RES        0.060000
    3610 C           31.4459    15.6417     4.4052 opls_135      1 RES       -0.180000
    3611 C           31.0257    14.4232     5.2277 opls_157      1 RES        0.145000
    3612 O           30.4102    14.6786     6.4703 opls_154      1 RES       -0.683000
    3613 H           29.7681    15.3611     6.3483 opls_155      1 RES        0.418000
    3614 H           31.9346    13.8299     5.3281 opls_140      1 RES        0.060000
    3615 H           30.3180    13.7654     4.7232 opls_140      1 RES        0.060000
    3616 H           30.5039    15.9431     3.9471 opls_140      1 RES        0.060000
    3617 H           32.1276    15.3538     3.6049 opls_140      1 RES        0.060000
    3618 H           31.9223    16.4651     4.9375 opls_140      1 RES        0.060000
    3619 C           33.7612     5.8326    31.2078 opls_135      1 RES       -0.180000
    3620 C           32.8766     4.5875    31.2793 opls_157      1 RES        0.145000
    3621 O           33.3922     3.4094    30.7011 opls_154      1 RES       -0.683000
    3622 H           34.2931     3.3166    30.9707 opls_155      1 RES        0.418000
    3623 H           31.9319     4.8926    30.8291 opls_140      1 RES        0.060000
    3624 H           32.6162     4.2813    32.2924 opls_140      1 RES        0.060000
    3625 H           34.4604     5.6625    32.0265 opls_140      1 RES        0.060000
    3626 H           33.1882     6.7300    31.4412 opls_140      1 RES        0.060000
    3627 H           34.2751     6.0284    30.2668 opls_140      1 RES        0.060000
    3628 C           13.9047     5.7086     2.6052 opls_135      1 RES       -0.180000
    3629 C           12.6125     6.4847     2.8613 opls_157      1 RES        0.145000
    3630 O           12.6486     7.4576     3.8811 opls_154      1 RES       -0.683000
    3631 H           13.4433     7.9597     3.7838 opls_155      1 RES        0.418000
    3632 H           11.8603     5.7175     3.0451 opls_140      1 RES        0.060000
    3633 H           12.2427     7.0357     1.9965 opls_140      1 RES        0.060000
    3634 H           14.4766     6.4118     1.9999 opls_140      1 RES        0.060000
    3635 H           13.7130     4.8251     1.9962 opls_140      1 RES        0.060000
    3636 H           14.4661     5.3695     3.4758 opls_140      1 RES        0.060000
    3637 C           20.7598    14.8745    10.1468 opls_135      1 RES       -0.180000
    3638 C           22.1666    15.3525     9.7859 opls_157      1 RES        0.145000
    3639 O           22.6591    14.9752     8.5197 opls_154      1 RES       -0.683000
    3640 H           21.9766    15.1171     7.8818 opls_155      1 RES        0.418000
    3641 H           22.7975    14.9968    10.6004 opls_140      1 RES        0.060000
    3642 H           22.2866    16.4359     9.7934 opls_140      1 RES        0.060000
    3643 H           20.1327    15.5934     9.6194 opls_140      1 RES        0.060000
    3644 H           20.5722    14.9902    11.2143 opls_140      1 RES        0.060000
    3645 H           20.5006    13.8460     9.8957 opls_140      1 RES        0.060000
    3646 C           25.8033    33.4589    25.0988 opls_135      1 RES       -0.180000
    3647 C           27.0537    32.7040    25.5508 opls_157      1 RES        0.145000
    3648 O           27.3806    32.7812    26.9202 opls_154      1 RES       -0.683000
    3649 H           26.5904    32.6495    27.4215 opls_155      1 RES        0.418000
    3650 H           27.8515    33.0812    24.9110 opls_140      1 RES        0.060000
    3651 H           27.0240    31.6320    25.3560 opls_140      1 RES        0.060000
    3652 H           25.0063    32.7753    25.3915 opls_140      1 RES        0.060000
    3653 H           25.7780    33.5535    24.0132 opls_140      1 RES        0.060000
    3654 H           25.6499    34.4602    25.5013 opls_140      1 RES        0.060000
    3655 C           17.5894    12.9854    29.1479 opls_135      1 RES       -0.180000
    3656 C           17.7361    14.5058    29.2154 opls_157      1 RES        0.145000
    3657 O           17.8851    15.0722    30.4980 opls_154      1 RES       -0.683000
    3658 H           18.5124    14.5548    30.9795 opls_155      1 RES        0.418000
    3659 H           16.8632    14.8921    28.6892 opls_140      1 RES        0.060000
    3660 H           18.5902    14.8979    28.6631 opls_140      1 RES        0.060000
    3661 H           18.6230    12.6524    29.2432 opls_140      1 RES        0.060000
    3662 H           17.2287    12.6732    28.1678 opls_140      1 RES        0.060000
    3663 H           16.9391    12.5119    29.8834 opls_140      1 RES        0.060000
    3664 C           27.8464     6.4455    29.0710 opls_135      1 RES       -0.180000
    3665 C           26.7631     5.3832    28.8817 opls_157      1 RES        0.145000
    3666 O           26.1274     4.9109    30.0483 opls_154      1 RES       -0.683000
    3667 H           25.9147     5.6543    30.5917 opls_155      1 RES        0.418000
    3668 H           27.2521     4.5854    28.3227 opls_140      1 RES        0.060000
    3669 H           25.9333     5.6983    28.2491 opls_140      1 RES        0.060000
    3670 H           27.2561     7.3537    29.1921 opls_140      1 RES        0.060000
    3671 H           28.4444     6.5559    28.1664 opls_140      1 RES        0.060000
    3672 H           28.5490     6.3034    29.8922 opls_140      1 RES        0.060000
    3673 C           25.0331    29.7260    19.5335 opls_135      1 RES       -0.180000
    3674 C           25.4931    31.1205    19.9593 opls_157      1 RES        0.145000
    3675 O           24.5249    31.9521    20.5586 opls_154      1 RES       -0.683000
    3676 H           24.0473    31.4409    21.1939 opls_155      1 RES        0.418000
    3677 H           25.9173    31.5600    19.0565 opls_140      1 RES        0.060000
    3678 H           26.3108    31.1212    20.6801 opls_140      1 RES        0.060000
    3679 H           25.0576    29.1801    20.4766 opls_140      1 RES        0.060000
    3680 H           25.7592    29.2651    18.8638 opls_140      1 RES        0.060000
    3681 H           24.0635    29.6469    19.0418 opls_140      1 RES        0.060000
    3682 C            6.2915    25.5051     9.6133 opls_135      1 RES       -0.180000
    3683 C            7.5618    24.7695    10.0411 opls_157      1 RES        0.145000
    3684 O            7.6479    23.4034     9.7027 opls_154      1 RES       -0.683000
    3685 H            7.3704    23.3023     8.8051 opls_155      1 RES        0.418000
    3686 H            7.6301    24.9366    11.1160 opls_140      1 RES        0.060000
    3687 H            8.4812    25.1910     9.6348 opls_140      1 RES        0.060000
    3688 H            6.4922    25.7139     8.5625 opls_140      1 RES        0.060000
    3689 H            6.2028    26.4602    10.1310 opls_140      1 RES        0.060000
    3690 H            5.3423    24.9875     9.7521 opls_140      1 RES        0.060000
    3691 C            5.8058     4.6282    14.4997 opls_135      1 RES       -0.180000
    3692 C            5.8300     4.9848    13.0131 opls_157      1 RES        0.145000
    3693 O            7.0846     5.3146    12.4605 opls_154      1 RES       -0.683000
    3694 H            7.7179     4.6825    12.7646 opls_155      1 RES        0.418000
    3695 H            5.1051     5.7922    12.9099 opls_140      1 RES        0.060000
    3696 H            5.4625     4.1952    12.3576 opls_140      1 RES        0.060000
    3697 H            6.1441     3.5920    14.4909 opls_140      1 RES        0.060000
    3698 H            4.7865     4.6417    14.8858 opls_140      1 RES        0.060000
    3699 H            6.4008     5.2457    15.1725 opls_140      1 RES        0.060000
    3700 C           29.3807     6.8160    14.7769 opls_135      1 RES       -0.180000
    3701 C           29.2327     7.7191    16.0017 opls_157      1 RES        0.145000
    3702 O           30.0998     8.8282    16.0802 opls_154      1 RES       -0.683000
    3703 H           30.1226     9.2472    15.2335 opls_155      1 RES        0.418000
    3704 H           29.3371     7.0486    16.8547 opls_140      1 RES        0.060000
    3705 H           28.2428     8.1612    16.1146 opls_140      1 RES        0.060000
    3706 H           28.8365     7.3743    14.0152 opls_140      1 RES        0.060000
    3707 H           28.8630     5.8687    14.9280 opls_140      1 RES        0.060000
    3708 H           30.3927     6.5689    14.4563 opls_140      1 RES        0.060000
    3709 C           16.3352    14.8858    21.1710 opls_135      1 RES       -0.180000
    3710 C           16.6992    13.7832    20.1762 opls_157      1 RES        0.145000
    3711 O           15.9983    13.7763    18.9528 opls_154      1 RES       -0.683000
    3712 H           15.9657    14.6620    18.6248 opls_155      1 RES        0.418000
    3713 H           16.5726    12.8547    20.7331 opls_140      1 RES        0.060000
    3714 H           17.7454    13.7841    19.8704 opls_140      1 RES        0.060000
    3715 H           16.8882    15.7389    20.7778 opls_140      1 RES        0.060000
    3716 H           16.7308    14.6612    22.1615 opls_140      1 RES        0.060000
    3717 H           15.2771    15.1116    21.3032 opls_140      1 RES        0.060000
    3718 C            5.7765    22.5417     2.8420 opls_135      1 RES       -0.180000
    3719 C            4.8505    23.5341     3.5459 opls_157      1 RES        0.145000
    3720 O            5.2426    23.9666     4.8294 opls_154      1 RES       -0.683000
    3721 H            6.1634    24.1776     4.8026 opls_155      1 RES        0.418000
    3722 H            3.8753    23.0471     3.5513 opls_140      1 RES        0.060000
    3723 H            4.6941    24.4646     3.0002 opls_140      1 RES        0.060000
    3724 H            6.5564    23.1956     2.4516 opls_140      1 RES        0.060000
    3725 H            5.2752    22.0782     1.9924 opls_140      1 RES        0.060000
    3726 H            6.1878    21.7291     3.4409 opls_140      1 RES        0.060000
    3727 C           28.3870    19.0215    10.4135 opls_135      1 RES       -0.180000
    3728 C           29.5572    19.7573    11.0668 opls_157      1 RES        0.145000
    3729 O           30.7451    19.8546    10.3135 opls_154      1 RES       -0.683000
    3730 H           30.5168    20.1020     9.4305 opls_155      1 RES        0.418000
    3731 H           29.7088    19.2473    12.0181 opls_140      1 RES        0.060000
    3732 H           29.3411    20.7911    11.3365 opls_140      1 RES        0.060000
    3733 H           27.9785    19.7853     9.7518 opls_140      1 RES        0.060000
    3734 H           27.6221    18.7766    11.1504 opls_140      1 RES        0.060000
    3735 H           28.6113    18.0977     9.8802 opls_140      1 RES        0.060000
    3736 C           33.0195    18.5167    19.5880 opls_135      1 RES       -0.180000
    3737 C           33.1080    17.3154    18.6462 opls_157      1 RES        0.145000
    3738 O           33.5890    17.5644    17.3443 opls_154      1 RES       -0.683000
    3739 H           34.3508    18.1196    17.4109 opls_155      1 RES        0.418000
    3740 H           32.1044    16.8902    18.6444 opls_140      1 RES        0.060000
    3741 H           33.7504    16.5115    19.0056 opls_140      1 RES        0.060000
    3742 H           34.0519    18.6208    19.9220 opls_140      1 RES        0.060000
    3743 H           32.4100    18.2820    20.4606 opls_140      1 RES        0.060000
    3744 H           32.6281    19.4473    19.1771 opls_140      1 RES        0.060000
    3745 C           22.7291    16.1149    27.7930 opls_135      1 RES       -0.180000
    3746 C           23.5303    17.2447    27.1454 opls_157      1 RES        0.145000
    3747 O           23.3023    17.4782    25.7737 opls_154      1 RES       -0.683000
    3748 H           22.3696    17.4667    25.6220 opls_155      1 RES        0.418000
    3749 H           24.5717    17.0033    27.3585 opls_140      1 RES        0.060000
    3750 H           23.3725    18.2227    27.6000 opls_140      1 RES        0.060000
    3751 H           21.7653    16.5920    27.9706 opls_140      1 RES        0.060000
    3752 H           23.1503    15.8458    28.7616 opls_140      1 RES        0.060000
    3753 H           22.6272    15.1869    27.2303 opls_140      1 RES        0.060000
    3754 C           13.9514    13.5609    16.2932 opls_135      1 RES       -0.180000
    3755 C           14.6254    13.7305    14.9312 opls_157      1 RES        0.145000
    3756 O           15.9790    13.3463    14.8414 opls_154      1 RES       -0.683000
    3757 H           16.0797    12.5118    15.2734 opls_155      1 RES        0.418000
    3758 H           14.4729    14.7790    14.6753 opls_140      1 RES        0.060000
    3759 H           14.1486    13.1747    14.1238 opls_140      1 RES        0.060000
    3760 H           13.7145    12.4969    16.2991 opls_140      1 RES        0.060000
    3761 H           13.0112    14.1110    16.3324 opls_140      1 RES        0.060000
    3762 H           14.5211    13.8567    17.1741 opls_140      1 RES        0.060000
    3763 C            6.7281     8.3295     6.7634 opls_135      1 RES       -0.180000
    3764 C            6.0514     8.6761     8.0899 opls_157      1 RES        0.145000
    3765 O            5.6472     7.5933     8.8975 opls_154      1 RES       -0.683000
    3766 H            6.3509     6.9630     8.9221 opls_155      1 RES        0.418000
    3767 H            5.2186     9.3235     7.8152 opls_140      1 RES        0.060000
    3768 H            6.6636     9.2794     8.7603 opls_140      1 RES        0.060000
    3769 H            7.7467     8.1042     7.0794 opls_140      1 RES        0.060000
    3770 H            6.7682     9.2000     6.1087 opls_140      1 RES        0.060000
    3771 H            6.2947     7.5195     6.1767 opls_140      1 RES        0.060000
    3772 C           18.4652     9.6770    20.3985 opls_135      1 RES       -0.180000
    3773 C           19.9466     9.4293    20.6846 opls_157      1 RES        0.145000
    3774 O           20.3420     9.4428    22.0380 opls_154      1 RES       -0.683000
    3775 H           19.7149     8.9401    22.5350 opls_155      1 RES        0.418000
    3776 H           20.4724    10.1766    20.0904 opls_140      1 RES        0.060000
    3777 H           20.3186     8.4717    20.3201 opls_140      1 RES        0.060000
    3778 H           18.0276     8.6995    20.6008 opls_140      1 RES        0.060000
    3779 H           18.3055     9.9008    19.3437 opls_140      1 RES        0.060000
    3780 H           17.9720    10.4691    20.9619 opls_140      1 RES        0.060000
    3781 C           26.6737    13.7534    19.7584 opls_135      1 RES       -0.180000
    3782 C           26.3822    12.2890    20.0877 opls_157      1 RES        0.145000
    3783 O           26.3715    11.9360    21.4528 opls_154      1 RES       -0.683000
    3784 H           25.8815    12.5919    21.9247 opls_155      1 RES        0.418000
    3785 H           27.1206    11.7246    19.5181 opls_140      1 RES        0.060000
    3786 H           25.4184    11.9321    19.7247 opls_140      1 RES        0.060000
    3787 H           25.7067    14.2237    19.9366 opls_140      1 RES        0.060000
    3788 H           26.9122    13.8737    18.7016 opls_140      1 RES        0.060000
    3789 H           27.4735    14.2421    20.3147 opls_140      1 RES        0.060000
    3790 C           33.6880    27.8240    17.7584 opls_135      1 RES       -0.180000
    3791 C           33.7441    28.7992    16.5822 opls_157      1 RES        0.145000
    3792 O           34.0412    28.2510    15.3176 opls_154      1 RES       -0.683000
    3793 H           33.5256    27.4670    15.2058 opls_155      1 RES        0.418000
    3794 H           34.4648    29.5585    16.8859 opls_140      1 RES        0.060000
    3795 H           32.8177    29.3474    16.4110 opls_140      1 RES        0.060000
    3796 H           32.6956    27.3875    17.6453 opls_140      1 RES        0.060000
    3797 H           33.7095    28.3589    18.7079 opls_140      1 RES        0.060000
    3798 H           34.4649    27.0614    17.8142 opls_140      1 RES        0.060000
    3799 C           30.8929     4.4759    12.1975 opls_135      1 RES       -0.180000
    3800 C           30.5632     5.7681    11.4497 opls_157      1 RES        0.145000
    3801 O           29.2052     6.1446    11.4027 opls_154      1 RES       -0.683000
    3802 H           28.8381     6.0388    12.2670 opls_155      1 RES        0.418000
    3803 H           30.9910     5.6304    10.4566 opls_140      1 RES        0.060000
    3804 H           31.0595     6.6537    11.8464 opls_140      1 RES        0.060000
    3805 H           30.8839     4.8053    13.2364 opls_140      1 RES        0.060000
    3806 H           31.9031     4.1392    11.9644 opls_140      1 RES        0.060000
    3807 H           30.2358     3.6216    12.0349 opls_140      1 RES        0.060000
    3808 C           22.6567     6.6690    18.3166 opls_135      1 RES       -0.180000
    3809 C           22.7622     7.8991    19.2185 opls_157      1 RES        0.145000
    3810 O           22.7040     7.6728    20.6090 opls_154      1 RES       -0.683000
    3811 H           23.2609     6.9371    20.8131 opls_155      1 RES        0.418000
    3812 H           21.9719     8.5652    18.8722 opls_140      1 RES        0.060000
    3813 H           23.6825     8.4693    19.0914 opls_140      1 RES        0.060000
    3814 H           23.6700     6.2694    18.3569 opls_140      1 RES        0.060000
    3815 H           22.4547     6.9595    17.2856 opls_140      1 RES        0.060000
    3816 H           21.9115     5.9180    18.5791 opls_140      1 RES        0.060000
    3817 C           17.0188    30.6271    30.1611 opls_135      1 RES       -0.180000
    3818 C           17.9461    31.2201    31.2223 opls_157      1 RES        0.145000
    3819 O           17.4786    31.2056    32.5525 opls_154      1 RES       -0.683000
    3820 H           17.1090    30.3536    32.7276 opls_155      1 RES        0.418000
    3821 H           18.1629    32.2281    30.8688 opls_140      1 RES        0.060000
    3822 H           18.9190    30.7331    31.2889 opls_140      1 RES        0.060000
    3823 H           17.1945    29.5576    30.2770 opls_140      1 RES        0.060000
    3824 H           17.3430    30.9106    29.1598 opls_140      1 RES        0.060000
    3825 H           15.9595    30.8757    30.2263 opls_140      1 RES        0.060000
    3826 C           13.6931    27.9323    29.1516 opls_135      1 RES       -0.180000
    3827 C           14.5746    29.1356    29.4874 opls_157      1 RES        0.145000
    3828 O           15.7070    29.3392    28.6723 opls_154      1 RES       -0.683000
    3829 H           15.4463    29.2316    27.7704 opls_155      1 RES        0.418000
    3830 H           14.8364    29.0029    30.5372 opls_140      1 RES        0.060000
    3831 H           14.0571    30.0941    29.4485 opls_140      1 RES        0.060000
    3832 H           13.1019    28.3090    28.3169 opls_140      1 RES        0.060000
    3833 H           13.0087    27.7116    29.9707 opls_140      1 RES        0.060000
    3834 H           14.1953    26.9966    28.9060 opls_140      1 RES        0.060000
    3835 C           28.8949     4.3055    22.2235 opls_135      1 RES       -0.180000
    3836 C           28.8525     2.9763    21.4691 opls_157      1 RES        0.145000
    3837 O           29.4696     2.9466    20.2016 opls_154      1 RES       -0.683000
    3838 H           30.3068     3.3797    20.2693 opls_155      1 RES        0.418000
    3839 H           27.7947     2.7176    21.4227 opls_140      1 RES        0.060000
    3840 H           29.3192     2.1460    21.9991 opls_140      1 RES        0.060000
    3841 H           29.9004     4.2967    22.6442 opls_140      1 RES        0.060000
    3842 H           28.1876     4.3040    23.0529 opls_140      1 RES        0.060000
    3843 H           28.7002     5.2125    21.6513 opls_140      1 RES        0.060000
    3844 C            7.7826    30.2306    16.6070 opls_135      1 RES       -0.180000
    3845 C            9.0454    29.6955    15.9311 opls_157      1 RES        0.145000
    3846 O            9.4620    30.3524    14.7551 opls_154      1 RES       -0.683000
    3847 H            9.4115    31.2845    14.9024 opls_155      1 RES        0.418000
    3848 H            8.8444    28.6369    15.7670 opls_140      1 RES        0.060000
    3849 H            9.9336    29.7158    16.5625 opls_140      1 RES        0.060000
    3850 H            8.1640    31.0950    17.1505 opls_140      1 RES        0.060000
    3851 H            7.4027    29.5185    17.3396 opls_140      1 RES        0.060000
    3852 H            6.9425    30.4918    15.9635 opls_140      1 RES        0.060000
    3853 C            6.7512    19.8093     5.6549 opls_135      1 RES       -0.180000
    3854 C            6.7469    19.7240     7.1815 opls_157      1 RES        0.145000
    3855 O            5.4943    19.5431     7.8030 opls_154      1 RES       -0.683000
    3856 H            5.0229    18.8740     7.3306 opls_155      1 RES        0.418000
    3857 H            7.2470    20.6347     7.5113 opls_140      1 RES        0.060000
    3858 H            7.3516    18.9123     7.5859 opls_140      1 RES        0.060000
    3859 H            6.6906    18.7595     5.3680 opls_140      1 RES        0.060000
    3860 H            7.7016    20.1992     5.2904 opls_140      1 RES        0.060000
    3861 H            5.9699    20.4063     5.1845 opls_140      1 RES        0.060000
    3862 C           15.7801     8.0967    18.4829 opls_135      1 RES       -0.180000
    3863 C           15.4941     6.5964    18.4112 opls_157      1 RES        0.145000
    3864 O           14.8827     6.0129    19.5399 opls_154      1 RES       -0.683000
    3865 H           14.1765     6.5755    19.8186 opls_155      1 RES        0.418000
    3866 H           16.4569     6.1416    18.1782 opls_140      1 RES        0.060000
    3867 H           14.8417     6.3041    17.5884 opls_140      1 RES        0.060000
    3868 H           14.8046     8.5257    18.2539 opls_140      1 RES        0.060000
    3869 H           16.4695     8.3987    17.6944 opls_140      1 RES        0.060000
    3870 H           16.1872     8.4848    19.4165 opls_140      1 RES        0.060000
    3871 C           30.8976     7.3577    33.6217 opls_135      1 RES       -0.180000
    3872 C           31.1033     8.3147    32.4470 opls_157      1 RES        0.145000
    3873 O           30.5385     7.9339    31.2125 opls_154      1 RES       -0.683000
    3874 H           29.6594     7.6257    31.3712 opls_155      1 RES        0.418000
    3875 H           32.1831     8.4505    32.3861 opls_140      1 RES        0.060000
    3876 H           30.7055     9.3162    32.6110 opls_140      1 RES        0.060000
    3877 H           29.8838     7.6015    33.9393 opls_140      1 RES        0.060000
    3878 H           31.5710     7.6012    34.4435 opls_140      1 RES        0.060000
    3879 H           31.0186     6.2922    33.4265 opls_140      1 RES        0.060000
    3880 C            9.0800    14.6355    29.5106 opls_135      1 RES       -0.180000
    3881 C            8.8116    13.1586    29.8014 opls_157      1 RES        0.145000
    3882 O            8.9225    12.7466    31.1453 opls_154      1 RES       -0.683000
    3883 H            8.4806    13.3819    31.6875 opls_155      1 RES        0.418000
    3884 H            9.4925    12.6186    29.1434 opls_140      1 RES        0.060000
    3885 H            7.8170    12.8192    29.5120 opls_140      1 RES        0.060000
    3886 H            8.1356    15.0990    29.7958 opls_140      1 RES        0.060000
    3887 H            9.2226    14.8015    28.4428 opls_140      1 RES        0.060000
    3888 H            9.9294    15.0985    30.0129 opls_140      1 RES        0.060000
    3889 C            4.2421    33.8634    21.4643 opls_135      1 RES       -0.180000
    3890 C            3.9428    32.7720    22.4924 opls_157      1 RES        0.145000
    3891 O            4.1303    33.1097    23.8485 opls_154      1 RES       -0.683000
    3892 H            3.7486    33.9613    23.9974 opls_155      1 RES        0.418000
    3893 H            4.5582    31.9262    22.1857 opls_140      1 RES        0.060000
    3894 H            2.9197    32.3973    22.4622 opls_140      1 RES        0.060000
    3895 H            3.3359    34.4679    21.5035 opls_140      1 RES        0.060000
    3896 H            4.3175    33.4423    20.4617 opls_140      1 RES        0.060000
    3897 H            5.1392    34.4632    21.6174 opls_140      1 RES        0.060000
    3898 C           20.4146    22.6378    29.9266 opls_135      1 RES       -0.180000
    3899 C           19.7742    21.4748    29.1682 opls_157      1 RES        0.145000
    3900 O           18.4345    21.1714    29.4864 opls_154      1 RES       -0.683000
    3901 H           17.9490    21.9811    29.5279 opls_155      1 RES        0.418000
    3902 H           20.4432    20.6312    29.3382 opls_140      1 RES        0.060000
    3903 H           19.7564    21.6023    28.0858 opls_140      1 RES        0.060000
    3904 H           20.0257    23.5023    29.3886 opls_140      1 RES        0.060000
    3905 H           21.4979    22.6308    29.8056 opls_140      1 RES        0.060000
    3906 H           20.2224    22.7037    30.9975 opls_140      1 RES        0.060000
    3907 C           10.6917     9.5329    26.7693 opls_135      1 RES       -0.180000
    3908 C           10.8945     8.0797    26.3394 opls_157      1 RES        0.145000
    3909 O           10.6945     7.7884    24.9744 opls_154      1 RES       -0.683000
    3910 H           11.1258     8.4556    24.4626 opls_155      1 RES        0.418000
    3911 H           10.2345     7.5041    26.9884 opls_140      1 RES        0.060000
    3912 H           11.8922     7.6889    26.5398 opls_140      1 RES        0.060000
    3913 H           11.6333     9.9927    26.4690 opls_140      1 RES        0.060000
    3914 H           10.6151     9.6100    27.8538 opls_140      1 RES        0.060000
    3915 H            9.8310    10.0610    26.3590 opls_140      1 RES        0.060000
    3916 C            6.9168    11.8363     7.8298 opls_135      1 RES       -0.180000
    3917 C            7.9394    12.7404     8.5186 opls_157      1 RES        0.145000
    3918 O            9.1832    12.8976     7.8732 opls_154      1 RES       -0.683000
    3919 H            9.0233    13.0465     6.9538 opls_155      1 RES        0.418000
    3920 H            8.0412    12.3289     9.5228 opls_140      1 RES        0.060000
    3921 H            7.6000    13.7650     8.6707 opls_140      1 RES        0.060000
    3922 H            6.5071    12.4967     7.0655 opls_140      1 RES        0.060000
    3923 H            6.1076    11.5751     8.5118 opls_140      1 RES        0.060000
    3924 H            7.2808    10.8999     7.4070 opls_140      1 RES        0.060000
    3925 C           22.7802     4.6140     9.3138 opls_135      1 RES       -0.180000
    3926 C           23.4774     5.3433    10.4626 opls_157      1 RES        0.145000
    3927 O           23.1338     4.9420    11.7699 opls_154      1 RES       -0.683000
    3928 H           23.1264     3.9975    11.7977 opls_155      1 RES        0.418000
    3929 H           23.2735     6.3992    10.2847 opls_140      1 RES        0.060000
    3930 H           24.5644     5.2635    10.4490 opls_140      1 RES        0.060000
    3931 H           23.3551     3.6902     9.2483 opls_140      1 RES        0.060000
    3932 H           22.9100     5.1534     8.3756 opls_140      1 RES        0.060000
    3933 H           21.7120     4.4230     9.4168 opls_140      1 RES        0.060000
    3934 C           31.8859    29.5962     8.2726 opls_135      1 RES       -0.180000
    3935 C           31.8042    30.5901     7.1136 opls_157      1 RES        0.145000
    3936 O           30.8276    31.6022     7.2139 opls_154      1 RES       -0.683000
    3937 H           30.8587    31.9585     8.0887 opls_155      1 RES        0.418000
    3938 H           31.6716    29.9710     6.2264 opls_140      1 RES        0.060000
    3939 H           32.7260    31.1427     6.9323 opls_140      1 RES        0.060000
    3940 H           32.4541    30.1574     9.0143 opls_140      1 RES        0.060000
    3941 H           32.4750    28.7224     7.9940 opls_140      1 RES        0.060000
    3942 H           30.9461    29.2207     8.6774 opls_140      1 RES        0.060000
    3943 C           20.6501    11.6214    18.0223 opls_135      1 RES       -0.180000
    3944 C           21.1645    12.9118    18.6609 opls_157      1 RES        0.145000
    3945 O           22.5336    13.2023    18.4894 opls_154      1 RES       -0.683000
    3946 H           22.7584    13.0473    17.5847 opls_155      1 RES        0.418000
    3947 H           20.8850    12.8317    19.7114 opls_140      1 RES        0.060000
    3948 H           20.6664    13.8150    18.3084 opls_140      1 RES        0.060000
    3949 H           20.5207    11.9182    16.9815 opls_140      1 RES        0.060000
    3950 H           19.6691    11.3570    18.4169 opls_140      1 RES        0.060000
    3951 H           21.2732    10.7322    18.1182 opls_140      1 RES        0.060000
    3952 C           14.7950    30.5741     8.3600 opls_135      1 RES       -0.180000
    3953 C           15.2003    29.8472     9.6426 opls_157      1 RES        0.145000
    3954 O           15.4984    30.6528    10.7608 opls_154      1 RES       -0.683000
    3955 H           14.8317    31.3187    10.8326 opls_155      1 RES        0.418000
    3956 H           16.0389    29.2155     9.3499 opls_140      1 RES        0.060000
    3957 H           14.4485    29.1545    10.0209 opls_140      1 RES        0.060000
    3958 H           13.7471    30.8057     8.5508 opls_140      1 RES        0.060000
    3959 H           14.8361    29.9017     7.5030 opls_140      1 RES        0.060000
    3960 H           15.3653    31.4616     8.0858 opls_140      1 RES        0.060000
    3961 C           32.4973    21.0366    26.2003 opls_135      1 RES       -0.180000
    3962 C           31.4123    20.2930    25.4208 opls_157      1 RES        0.145000
    3963 O           31.1074    18.9847    25.8494 opls_154      1 RES       -0.683000
    3964 H           31.0367    18.9904    26.7917 opls_155      1 RES        0.418000
    3965 H           31.7460    20.3235    24.3836 opls_140      1 RES        0.060000
    3966 H           30.4432    20.7919    25.4162 opls_140      1 RES        0.060000
    3967 H           31.9503    21.3842    27.0767 opls_140      1 RES        0.060000
    3968 H           32.8375    21.9144    25.6510 opls_140      1 RES        0.060000
    3969 H           33.3911    20.4757    26.4735 opls_140      1 RES        0.060000
    3970 C           28.4439     9.9171    12.3496 opls_135      1 RES       -0.180000
    3971 C           29.2723     9.1918    11.2886 opls_157      1 RES        0.145000
    3972 O           29.5580     9.9082    10.1082 opls_154      1 RES       -0.683000
    3973 H           29.8309    10.7802    10.3494 opls_155      1 RES        0.418000
    3974 H           28.7256     8.2694    11.0930 opls_140      1 RES        0.060000
    3975 H           30.2539     8.8662    11.6329 opls_140      1 RES        0.060000
    3976 H           29.1932    10.5417    12.8359 opls_140      1 RES        0.060000
    3977 H           28.0636     9.2154    13.0919 opls_140      1 RES        0.060000
    3978 H           27.5888    10.4990    12.0058 opls_140      1 RES        0.060000
    3979 C           25.2062    13.8251    14.1128 opls_135      1 RES       -0.180000
    3980 C           25.6812    14.0697    12.6802 opls_157      1 RES        0.145000
    3981 O           26.9505    13.5603    12.3374 opls_154      1 RES       -0.683000
    3982 H           27.0160    12.6785    12.6707 opls_155      1 RES        0.418000
    3983 H           25.6170    15.1497    12.5476 opls_140      1 RES        0.060000
    3984 H           25.0252    13.6556    11.9145 opls_140      1 RES        0.060000
    3985 H           24.8487    12.7967    14.0618 opls_140      1 RES        0.060000
    3986 H           24.3547    14.4615    14.3536 opls_140      1 RES        0.060000
    3987 H           25.9338    13.9646    14.9123 opls_140      1 RES        0.060000
    3988 C           12.4775    27.6320    13.7200 opls_135      1 RES       -0.180000
    3989 C           11.0352    27.9900    14.0798 opls_157      1 RES        0.145000
    3990 O           10.2097    26.9336    14.5165 opls_154      1 RES       -0.683000
    3991 H           10.6958    26.4158    15.1399 opls_155      1 RES        0.418000
    3992 H           10.6426    28.4845    13.1913 opls_140      1 RES        0.060000
    3993 H           10.9430    28.7305    14.8743 opls_140      1 RES        0.060000
    3994 H           12.9516    27.5839    14.7003 opls_140      1 RES        0.060000
    3995 H           12.9504    28.4398    13.1614 opls_140      1 RES        0.060000
    3996 H           12.6385    26.7207    13.1441 opls_140      1 RES        0.060000
    3997 C            7.3545     7.9134    31.1767 opls_135      1 RES       -0.180000
    3998 C            7.0709     9.0949    32.1049 opls_157      1 RES        0.145000
    3999 O            7.8054    10.2755    31.8710 opls_154      1 RES       -0.683000
    4000 H            7.8054    10.4454    30.9414 opls_155      1 RES        0.418000
    4001 H            7.2254     8.7012    33.1095 opls_140      1 RES        0.060000
    4002 H            6.0348     9.4332    32.0946 opls_140      1 RES        0.060000
    4003 H            6.7732     8.1740    30.2922 opls_140      1 RES        0.060000
    4004 H            6.9422     6.9908    31.5854 opls_140      1 RES        0.060000
    4005 H            8.3966     7.7066    30.9333 opls_140      1 RES        0.060000
    4006 C            6.9097    15.5990    26.2478 opls_135      1 RES       -0.180000
    4007 C            6.4990    15.0570    27.6172 opls_157      1 RES        0.145000
    4008 O            5.2012    14.5157    27.7217 opls_154      1 RES       -0.683000
    4009 H            5.0510    13.9592    26.9729 opls_155      1 RES        0.418000
    4010 H            6.6592    15.8883    28.3037 opls_140      1 RES        0.060000
    4011 H            7.1390    14.2585    27.9927 opls_140      1 RES        0.060000
    4012 H            7.1793    14.6878    25.7137 opls_140      1 RES        0.060000
    4013 H            7.8053    16.2153    26.3267 opls_140      1 RES        0.060000
    4014 H            6.1739    16.1892    25.7016 opls_140      1 RES        0.060000
    4015 C           30.0223    17.5285     7.9334 opls_135      1 RES       -0.180000
    4016 C           31.0335    17.1066     8.9998 opls_157      1 RES        0.145000
    4017 O           31.1149    15.7284     9.2866 opls_154      1 RES       -0.683000
    4018 H           31.1256    15.2556     8.4685 opls_155      1 RES        0.418000
    4019 H           30.7744    17.6992     9.8772 opls_140      1 RES        0.060000
    4020 H           32.0638    17.3809     8.7729 opls_140      1 RES        0.060000
    4021 H           30.5577    17.3046     7.0107 opls_140      1 RES        0.060000
    4022 H           29.8504    18.6044     7.9652 opls_140      1 RES        0.060000
    4023 H           29.0403    17.0563     7.9598 opls_140      1 RES        0.060000
    4024 C            7.6440    20.8012    19.6480 opls_135      1 RES       -0.180000
    4025 C            9.1579    20.7101    19.4536 opls_157      1 RES        0.145000
    4026 O            9.6770    19.4474    19.1013 opls_154      1 RES       -0.683000
    4027 H            9.1305    19.0808    18.4231 opls_155      1 RES        0.418000
    4028 H            9.5800    21.0882    20.3847 opls_140      1 RES        0.060000
    4029 H            9.5503    21.3714    18.6811 opls_140      1 RES        0.060000
    4030 H            7.2863    20.8714    18.6208 opls_140      1 RES        0.060000
    4031 H            7.3729    21.7255    20.1582 opls_140      1 RES        0.060000
    4032 H            7.1596    19.9917    20.1940 opls_140      1 RES        0.060000
    4033 C           15.7718    10.7295    25.6245 opls_135      1 RES       -0.180000
    4034 C           15.2687     9.5769    26.4941 opls_157      1 RES        0.145000
    4035 O           15.4789     9.6923    27.8835 opls_154      1 RES       -0.683000
    4036 H           15.2431    10.5686    28.1472 opls_155      1 RES        0.418000
    4037 H           15.7394     8.6876    26.0748 opls_140      1 RES        0.060000
    4038 H           14.1980     9.3897    26.4130 opls_140      1 RES        0.060000
    4039 H           14.9801    11.4688    25.7459 opls_140      1 RES        0.060000
    4040 H           15.7984    10.4405    24.5738 opls_140      1 RES        0.060000
    4041 H           16.7536    11.1414    25.8580 opls_140      1 RES        0.060000
    4042 C            6.7912     2.7940    18.5224 opls_135      1 RES       -0.180000
    4043 C            6.6877     3.9683    17.5487 opls_157      1 RES        0.145000
    4044 O            7.6415     4.0179    16.5114 opls_154      1 RES       -0.683000
    4045 H            7.7203     3.1527    16.1396 opls_155      1 RES        0.418000
    4046 H            6.7146     4.8557    18.1810 opls_140      1 RES        0.060000
    4047 H            5.7353     4.0303    17.0223 opls_140      1 RES        0.060000
    4048 H            6.3146     1.9902    17.9614 opls_140      1 RES        0.060000
    4049 H            6.1932     2.9760    19.4154 opls_140      1 RES        0.060000
    4050 H            7.7871     2.5157    18.8673 opls_140      1 RES        0.060000
    4051 C            9.4588    29.3580    19.6423 opls_135      1 RES       -0.180000
    4052 C            8.5563    28.2366    20.1576 opls_157      1 RES        0.145000
    4053 O            8.9896    27.5544    21.3131 opls_154      1 RES       -0.683000
    4054 H            9.2865    28.1947    21.9415 opls_155      1 RES        0.418000
    4055 H            8.4282    27.5700    19.3048 opls_140      1 RES        0.060000
    4056 H            7.5467    28.5571    20.4146 opls_140      1 RES        0.060000
    4057 H            9.1965    30.1837    20.3038 opls_140      1 RES        0.060000
    4058 H            9.1817    29.6442    18.6277 opls_140      1 RES        0.060000
    4059 H           10.5325    29.1710    19.6297 opls_140      1 RES        0.060000
    4060 C           13.6585    18.0775    27.3341 opls_135      1 RES       -0.180000
    4061 C           13.5477    18.5920    28.7696 opls_157      1 RES        0.145000
    4062 O           13.1834    19.9444    28.9321 opls_154      1 RES       -0.683000
    4063 H           12.4632    20.1296    28.3489 opls_155      1 RES        0.418000
    4064 H           14.5135    18.3645    29.2208 opls_140      1 RES        0.060000
    4065 H           12.8214    18.0572    29.3817 opls_140      1 RES        0.060000
    4066 H           12.6155    17.8922    27.0774 opls_140      1 RES        0.060000
    4067 H           14.1832    17.1226    27.3032 opls_140      1 RES        0.060000
    4068 H           14.1486    18.7246    26.6066 opls_140      1 RES        0.060000
    4069 C            2.6252    13.0520    15.1626 opls_135      1 RES       -0.180000
    4070 C            3.3322    13.2422    13.8203 opls_157      1 RES        0.145000
    4071 O            3.9040    14.5082    13.5786 opls_154      1 RES       -0.683000
    4072 H            4.3705    14.7760    14.3556 opls_155      1 RES        0.418000
    4073 H            2.5853    12.9739    13.0732 opls_140      1 RES        0.060000
    4074 H            4.1585    12.5525    13.6482 opls_140      1 RES        0.060000
    4075 H            3.4621    12.8721    15.8374 opls_140      1 RES        0.060000
    4076 H            2.0074    12.1540    15.1523 opls_140      1 RES        0.060000
    4077 H            1.9870    13.8637    15.5119 opls_140      1 RES        0.060000
    4078 C           11.6611    18.9826    16.9461 opls_135      1 RES       -0.180000
    4079 C           11.8278    18.1585    18.2231 opls_157      1 RES        0.145000
    4080 O           12.8668    17.2052    18.2315 opls_154      1 RES       -0.683000
    4081 H           13.6421    17.6086    17.8722 opls_155      1 RES        0.418000
    4082 H           10.8495    17.7087    18.3923 opls_140      1 RES        0.060000
    4083 H           12.0196    18.7522    19.1169 opls_140      1 RES        0.060000
    4084 H           12.4381    19.7386    17.0598 opls_140      1 RES        0.060000
    4085 H           10.6986    19.4941    16.9368 opls_140      1 RES        0.060000
    4086 H           11.7415    18.4551    15.9956 opls_140      1 RES        0.060000
    4087 C           14.6304    30.3393    25.0590 opls_135      1 RES       -0.180000
    4088 C           13.7715    31.3732    25.7878 opls_157      1 RES        0.145000
    4089 O           12.9350    30.8916    26.8156 opls_154      1 RES       -0.683000
    4090 H           13.4347    30.2913    27.3476 opls_155      1 RES        0.418000
    4091 H           13.2127    31.8754    24.9981 opls_140      1 RES        0.060000
    4092 H           14.3410    32.1658    26.2732 opls_140      1 RES        0.060000
    4093 H           15.4589    30.2011    25.7537 opls_140      1 RES        0.060000
    4094 H           15.0362    30.7528    24.1358 opls_140      1 RES        0.060000
    4095 H           14.1582    29.3932    24.7942 opls_140      1 RES        0.060000
    4096 C           14.2731    17.1527    23.6330 opls_135      1 RES       -0.180000
    4097 C           12.8585    17.7261    23.5438 opls_157      1 RES        0.145000
    4098 O           12.5948    18.5991    22.4685 opls_154      1 RES       -0.683000
    4099 H           12.9589    18.2203    21.6830 opls_155      1 RES        0.418000
    4100 H           12.6886    18.1963    24.5124 opls_140      1 RES        0.060000
    4101 H           12.0751    16.9730    23.4586 opls_140      1 RES        0.060000
    4102 H           14.2373    16.3436    22.9035 opls_140      1 RES        0.060000
    4103 H           14.4513    16.7092    24.6127 opls_140      1 RES        0.060000
    4104 H           15.1026    17.8345    23.4454 opls_140      1 RES        0.060000
    4105 C           14.0224    16.7803     4.1500 opls_135      1 RES       -0.180000
    4106 C           13.1008    15.6112     4.4990 opls_157      1 RES        0.145000
    4107 O           12.3119    15.0913     3.4524 opls_154      1 RES       -0.683000
    4108 H           12.8586    14.9983     2.6872 opls_155      1 RES        0.418000
    4109 H           12.4992    15.9721     5.3333 opls_140      1 RES        0.060000
    4110 H           13.6183    14.7342     4.8878 opls_140      1 RES        0.060000
    4111 H           14.8663    16.2732     3.6822 opls_140      1 RES        0.060000
    4112 H           14.3877    17.2698     5.0528 opls_140      1 RES        0.060000
    4113 H           13.6153    17.5662     3.5138 opls_140      1 RES        0.060000
    4114 C           25.2308     5.7487    24.2487 opls_135      1 RES       -0.180000
    4115 C           26.0667     6.9636    23.8447 opls_157      1 RES        0.145000
    4116 O           27.3110     7.1198    24.4893 opls_154      1 RES       -0.683000
    4117 H           27.7452     6.2806    24.5031 opls_155      1 RES        0.418000
    4118 H           25.4076     7.8176    24.0006 opls_140      1 RES        0.060000
    4119 H           26.3223     6.9986    22.7857 opls_140      1 RES        0.060000
    4120 H           25.6990     4.9491    23.6747 opls_140      1 RES        0.060000
    4121 H           24.2033     5.8508    23.8995 opls_140      1 RES        0.060000
    4122 H           25.1755     5.5097    25.3107 opls_140      1 RES        0.060000
    4123 C           25.4563     2.6623     8.6947 opls_135      1 RES       -0.180000
    4124 C           25.0427     2.8603     7.2361 opls_157      1 RES        0.145000
    4125 O           25.6526     3.9262     6.5432 opls_154      1 RES       -0.683000
    4126 H           26.5783     3.9119     6.7327 opls_155      1 RES        0.418000
    4127 H           23.9569     2.9509     7.2658 opls_140      1 RES        0.060000
    4128 H           25.2328     1.9986     6.5962 opls_140      1 RES        0.060000
    4129 H           26.4051     2.1354     8.5929 opls_140      1 RES        0.060000
    4130 H           24.7611     1.9986     9.2088 opls_140      1 RES        0.060000
    4131 H           25.5497     3.5542     9.3142 opls_140      1 RES        0.060000
    4132 C            6.0802    33.3083    29.2643 opls_135      1 RES       -0.180000
    4133 C            7.5655    32.9557    29.1773 opls_157      1 RES        0.145000
    4134 O            8.1787    32.4969    30.3612 opls_154      1 RES       -0.683000
    4135 H            7.6060    31.8629    30.7652 opls_155      1 RES        0.418000
    4136 H            8.0409    33.8543    28.7841 opls_140      1 RES        0.060000
    4137 H            7.7986    32.1769    28.4513 opls_140      1 RES        0.060000
    4138 H            5.6093    32.3272    29.2020 opls_140      1 RES        0.060000
    4139 H            5.7660    33.8837    28.3935 opls_140      1 RES        0.060000
    4140 H            5.7482    33.8650    30.1406 opls_140      1 RES        0.060000
    4141 C           15.3478    16.7896    31.3610 opls_135      1 RES       -0.180000
    4142 C           14.0730    16.2395    30.7206 opls_157      1 RES        0.145000
    4143 O           14.0288    16.2202    29.3114 opls_154      1 RES       -0.683000
    4144 H           14.8528    15.8842    28.9935 opls_155      1 RES        0.418000
    4145 H           13.2673    16.8323    31.1537 opls_140      1 RES        0.060000
    4146 H           13.8415    15.2109    30.9969 opls_140      1 RES        0.060000
    4147 H           16.0244    15.9381    31.2893 opls_140      1 RES        0.060000
    4148 H           15.1909    17.0014    32.4187 opls_140      1 RES        0.060000
    4149 H           15.7787    17.6907    30.9247 opls_140      1 RES        0.060000
    4150 C           21.0493    23.4385    18.4523 opls_135      1 RES       -0.180000
    4151 C           21.3468    24.1529    17.1336 opls_157      1 RES        0.145000
    4152 O           20.2378    24.4888    16.3302 opls_154      1 RES       -0.683000
    4153 H           19.5723    24.8647    16.8858 opls_155      1 RES        0.418000
    4154 H           22.0514    23.5005    16.6179 opls_140      1 RES        0.060000
    4155 H           21.8753    25.0994    17.2469 opls_140      1 RES        0.060000
    4156 H           20.7533    24.2656    19.0977 opls_140      1 RES        0.060000
    4157 H           21.9557    22.9995    18.8693 opls_140      1 RES        0.060000
    4158 H           20.3004    22.6466    18.4350 opls_140      1 RES        0.060000
    4159 C           24.6561    10.8321    28.6201 opls_135      1 RES       -0.180000
    4160 C           23.4631    11.5931    28.0408 opls_157      1 RES        0.145000
    4161 O           23.3295    11.5891    26.6371 opls_154      1 RES       -0.683000
    4162 H           23.4721    10.7075    26.3283 opls_155      1 RES        0.418000
    4163 H           23.5534    12.6005    28.4470 opls_140      1 RES        0.060000
    4164 H           22.4936    11.2379    28.3900 opls_140      1 RES        0.060000
    4165 H           24.3030     9.8012    28.5942 opls_140      1 RES        0.060000
    4166 H           24.8190    11.1016    29.6636 opls_140      1 RES        0.060000
    4167 H           25.6158    10.9471    28.1163 opls_140      1 RES        0.060000
    4168 C           12.7857    16.2026    13.2610 opls_135      1 RES       -0.180000
    4169 C           14.2416    16.5533    12.9526 opls_157      1 RES        0.145000
    4170 O           15.0048    15.5688    12.2919 opls_154      1 RES       -0.683000
    4171 H           14.4855    15.2157    11.5857 opls_155      1 RES        0.418000
    4172 H           14.6689    16.8339    13.9153 opls_140      1 RES        0.060000
    4173 H           14.3659    17.4358    12.3250 opls_140      1 RES        0.060000
    4174 H           12.3003    16.3812    12.3015 opls_140      1 RES        0.060000
    4175 H           12.3624    16.9011    13.9828 opls_140      1 RES        0.060000
    4176 H           12.5814    15.2016    13.6411 opls_140      1 RES        0.060000
    4177 C           15.3085    13.3956     2.8414 opls_135      1 RES       -0.180000
    4178 C           16.6371    13.7024     3.5330 opls_157      1 RES        0.145000
    4179 O           17.7501    13.9272     2.6969 opls_154      1 RES       -0.683000
    4180 H           17.4833    14.5028     1.9966 opls_155      1 RES        0.418000
    4181 H           16.7927    12.8681     4.2169 opls_140      1 RES        0.060000
    4182 H           16.6157    14.5856     4.1715 opls_140      1 RES        0.060000
    4183 H           14.9681    14.3895     2.5508 opls_140      1 RES        0.060000
    4184 H           14.5860    12.9910     3.5503 opls_140      1 RES        0.060000
    4185 H           15.3312    12.7088     1.9953 opls_140      1 RES        0.060000
    4186 C            4.9101    22.7051     8.1541 opls_135      1 RES       -0.180000
    4187 C            4.7206    22.2628     9.6054 opls_157      1 RES        0.145000
    4188 O            4.2460    23.2364    10.5081 opls_154      1 RES       -0.683000
    4189 H            3.5292    23.6963    10.0984 opls_155      1 RES        0.418000
    4190 H            5.6889    21.8589     9.9007 opls_140      1 RES        0.060000
    4191 H            4.0229    21.4351     9.7333 opls_140      1 RES        0.060000
    4192 H            3.8923    22.6580     7.7668 opls_140      1 RES        0.060000
    4193 H            5.5095    21.9808     7.6025 opls_140      1 RES        0.060000
    4194 H            5.3666    23.6800     7.9832 opls_140      1 RES        0.060000
    4195 C           15.4325    26.9214    25.9299 opls_135      1 RES       -0.180000
    4196 C           14.4914    25.8438    25.3906 opls_157      1 RES        0.145000
    4197 O           14.5027    24.6010    26.0565 opls_154      1 RES       -0.683000
    4198 H           14.4871    24.7633    26.9873 opls_155      1 RES        0.418000
    4199 H           14.7502    25.7527    24.3357 opls_140      1 RES        0.060000
    4200 H           13.4386    26.1260    25.3956 opls_140      1 RES        0.060000
    4201 H           14.8748    27.3039    26.7847 opls_140      1 RES        0.060000
    4202 H           15.5420    27.7355    25.2133 opls_140      1 RES        0.060000
    4203 H           16.4409    26.6131    26.2059 opls_140      1 RES        0.060000
    4204 C           18.5002    21.9353    16.1266 opls_135      1 RES       -0.180000
    4205 C           19.8956    21.4739    15.7051 opls_157      1 RES        0.145000
    4206 O           20.4640    22.1147    14.5851 opls_154      1 RES       -0.683000
    4207 H           20.3238    23.0451    14.6730 opls_155      1 RES        0.418000
    4208 H           19.8006    20.3972    15.5643 opls_140      1 RES        0.060000
    4209 H           20.6566    21.5877    16.4771 opls_140      1 RES        0.060000
    4210 H           18.7199    22.8473    16.6817 opls_140      1 RES        0.060000
    4211 H           18.0490    21.2251    16.8194 opls_140      1 RES        0.060000
    4212 H           17.7690    22.1052    15.3363 opls_140      1 RES        0.060000
    4213 C           22.6613    24.6596    30.5763 opls_135      1 RES       -0.180000
    4214 C           23.9209    23.9470    30.0829 opls_157      1 RES        0.145000
    4215 O           24.3998    24.3152    28.8089 opls_154      1 RES       -0.683000
    4216 H           24.3834    25.2580    28.7471 opls_155      1 RES        0.418000
    4217 H           23.6815    22.8855    30.1463 opls_140      1 RES        0.060000
    4218 H           24.7897    24.0755    30.7286 opls_140      1 RES        0.060000
    4219 H           23.0615    25.6090    30.9324 opls_140      1 RES        0.060000
    4220 H           22.2303    24.1390    31.4315 opls_140      1 RES        0.060000
    4221 H           21.8527    24.8012    29.8593 opls_140      1 RES        0.060000
    4222 C           14.8734    28.0667    18.8410 opls_135      1 RES       -0.180000
    4223 C           13.8231    28.2966    19.9280 opls_157      1 RES        0.145000
    4224 O           14.2888    28.3541    21.2577 opls_154      1 RES       -0.683000
    4225 H           15.0600    28.8998    21.2783 opls_155      1 RES        0.418000
    4226 H           13.0908    27.5033    19.7779 opls_140      1 RES        0.060000
    4227 H           13.2581    29.2220    19.8157 opls_140      1 RES        0.060000
    4228 H           15.2943    29.0644    18.7163 opls_140      1 RES        0.060000
    4229 H           14.4024    27.7846    17.8993 opls_140      1 RES        0.060000
    4230 H           15.6436    27.3211    19.0385 opls_140      1 RES        0.060000
    4231 C           31.0982    11.9247     8.0473 opls_135      1 RES       -0.180000
    4232 C           32.1390    12.2601     9.1159 opls_157      1 RES        0.145000
    4233 O           32.1020    11.4945    10.2994 opls_154      1 RES       -0.683000
    4234 H           32.0032    10.5854    10.0614 opls_155      1 RES        0.418000
    4235 H           32.0081    13.3254     9.3056 opls_140      1 RES        0.060000
    4236 H           33.1717    12.1617     8.7811 opls_140      1 RES        0.060000
    4237 H           31.5370    11.0493     7.5687 opls_140      1 RES        0.060000
    4238 H           31.0389    12.7168     7.3009 opls_140      1 RES        0.060000
    4239 H           30.0782    11.7376     8.3830 opls_140      1 RES        0.060000
    4240 C           32.1061    19.2457     4.0537 opls_135      1 RES       -0.180000
    4241 C           31.4711    19.6538     2.7240 opls_157      1 RES        0.145000
    4242 O           32.1178    20.6763     1.9999 opls_154      1 RES       -0.683000
    4243 H           33.0459    20.4983     2.0000 opls_155      1 RES        0.418000
    4244 H           30.4418    19.9094     2.9753 opls_140      1 RES        0.060000
    4245 H           31.3879    18.8428     2.0004 opls_140      1 RES        0.060000
    4246 H           32.9140    18.5902     3.7286 opls_140      1 RES        0.060000
    4247 H           31.4134    18.6499     4.6481 opls_140      1 RES        0.060000
    4248 H           32.4651    20.0442     4.7031 opls_140      1 RES        0.060000
    4249 C           11.8299     7.3858    20.8271 opls_135      1 RES       -0.180000
    4250 C           11.0925     8.4807    21.5987 opls_157      1 RES        0.145000
    4251 O           10.2384     9.3175    20.8514 opls_154      1 RES       -0.683000
    4252 H            9.7252     8.7756    20.2717 opls_155      1 RES        0.418000
    4253 H           11.8785     9.0377    22.1086 opls_140      1 RES        0.060000
    4254 H           10.4506     8.1099    22.3978 opls_140      1 RES        0.060000
    4255 H           11.0615     6.6190    20.7295 opls_140      1 RES        0.060000
    4256 H           12.6412     6.9693    21.4240 opls_140      1 RES        0.060000
    4257 H           12.2610     7.6562    19.8631 opls_140      1 RES        0.060000
    4258 C           14.8263    26.7023    11.2915 opls_135      1 RES       -0.180000
    4259 C           14.6938    25.1965    11.0620 opls_157      1 RES        0.145000
    4260 O           14.3674    24.4101    12.1859 opls_154      1 RES       -0.683000
    4261 H           13.6689    24.8397    12.6555 opls_155      1 RES        0.418000
    4262 H           15.6399    24.9010    10.6085 opls_140      1 RES        0.060000
    4263 H           13.9355    24.9206    10.3292 opls_140      1 RES        0.060000
    4264 H           13.7851    27.0250    11.2928 opls_140      1 RES        0.060000
    4265 H           15.3218    27.1817    10.4472 opls_140      1 RES        0.060000
    4266 H           15.3551    27.0277    12.1874 opls_140      1 RES        0.060000
    4267 C           28.0316    10.3693    29.9339 opls_135      1 RES       -0.180000
    4268 C           28.9734    10.1016    28.7595 opls_157      1 RES        0.145000
    4269 O           29.8425     8.9981    28.8824 opls_154      1 RES       -0.683000
    4270 H           29.3465     8.2658    29.2154 opls_155      1 RES        0.418000
    4271 H           29.5100    11.0394    28.6154 opls_140      1 RES        0.060000
    4272 H           28.4665     9.9223    27.8113 opls_140      1 RES        0.060000
    4273 H           27.2367     9.6444    29.7581 opls_140      1 RES        0.060000
    4274 H           27.5948    11.3654    29.8622 opls_140      1 RES        0.060000
    4275 H           28.4466    10.2838    30.9381 opls_140      1 RES        0.060000
    4276 C           19.6482     4.3789     7.6590 opls_135      1 RES       -0.180000
    4277 C           19.4270     4.5664     6.1577 opls_157      1 RES        0.145000
    4278 O           18.4933     5.5503     5.7724 opls_154      1 RES       -0.683000
    4279 H           18.6515     6.3268     6.2871 opls_155      1 RES        0.418000
    4280 H           19.1615     3.5750     5.7908 opls_140      1 RES        0.060000
    4281 H           20.3257     4.8371     5.6035 opls_140      1 RES        0.060000
    4282 H           20.3239     5.2013     7.8941 opls_140      1 RES        0.060000
    4283 H           20.1763     3.4469     7.8603 opls_140      1 RES        0.060000
    4284 H           18.7660     4.3804     8.2992 opls_140      1 RES        0.060000
    4285 C            5.2057    29.7311    18.5019 opls_135      1 RES       -0.180000
    4286 C            5.9328    30.9335    19.1048 opls_157      1 RES        0.145000
    4287 O            5.7249    31.1769    20.4780 opls_154      1 RES       -0.683000
    4288 H            5.7925    30.3545    20.9385 opls_155      1 RES        0.418000
    4289 H            5.6348    31.7777    18.4831 opls_140      1 RES        0.060000
    4290 H            7.0183    30.8910    19.0151 opls_140      1 RES        0.060000
    4291 H            5.8431    28.9020    18.8092 opls_140      1 RES        0.060000
    4292 H            5.2195    29.7750    17.4129 opls_140      1 RES        0.060000
    4293 H            4.1668    29.5764    18.7933 opls_140      1 RES        0.060000
    4294 C           25.4010    19.3143    25.2363 opls_135      1 RES       -0.180000
    4295 C           25.5649    20.8235    25.4190 opls_157      1 RES        0.145000
    4296 O           26.2620    21.2511    26.5676 opls_154      1 RES       -0.683000
    4297 H           27.0360    20.7170    26.6606 opls_155      1 RES        0.418000
    4298 H           24.5503    21.2195    25.3770 opls_140      1 RES        0.060000
    4299 H           26.0910    21.3184    24.6027 opls_140      1 RES        0.060000
    4300 H           26.3711    19.0273    24.8306 opls_140      1 RES        0.060000
    4301 H           24.6466    19.0942    24.4809 opls_140      1 RES        0.060000
    4302 H           25.1381    18.7288    26.1173 opls_140      1 RES        0.060000
    4303 C           11.7434    30.7722    22.0743 opls_135      1 RES       -0.180000
    4304 C           10.8527    31.9892    22.3265 opls_157      1 RES        0.145000
    4305 O           11.3354    33.2334    21.8715 opls_154      1 RES       -0.683000
    4306 H           11.6737    33.1182    20.9967 opls_155      1 RES        0.418000
    4307 H           10.6710    31.9815    23.4012 opls_140      1 RES        0.060000
    4308 H            9.8625    31.9199    21.8761 opls_140      1 RES        0.060000
    4309 H           11.5277    30.5446    21.0304 opls_140      1 RES        0.060000
    4310 H           11.4183    29.9220    22.6739 opls_140      1 RES        0.060000
    4311 H           12.8122    30.8881    22.2539 opls_140      1 RES        0.060000
    4312 C            7.8053     8.2842    26.9202 opls_135      1 RES       -0.180000
    4313 C            6.3213     8.4710    26.6031 opls_157      1 RES        0.145000
    4314 O            5.4176     8.2950    27.6710 opls_154      1 RES       -0.683000
    4315 H            5.7594     8.7485    28.4263 opls_155      1 RES        0.418000
    4316 H            6.1265     7.7875    25.7766 opls_140      1 RES        0.060000
    4317 H            6.0676     9.4573    26.2145 opls_140      1 RES        0.060000
    4318 H            8.0625     9.2397    27.3773 opls_140      1 RES        0.060000
    4319 H            8.3888     8.1860    26.0048 opls_140      1 RES        0.060000
    4320 H            8.0796     7.4416    27.5550 opls_140      1 RES        0.060000
    4321 C           15.7764     2.7448    22.8729 opls_135      1 RES       -0.180000
    4322 C           14.8746     2.8362    21.6416 opls_157      1 RES        0.145000
    4323 O           15.0449     3.9645    20.8133 opls_154      1 RES       -0.683000
    4324 H           15.9711     4.0993    20.6827 opls_155      1 RES        0.418000
    4325 H           13.8608     2.7579    22.0342 opls_140      1 RES        0.060000
    4326 H           14.9718     1.9973    20.9525 opls_140      1 RES        0.060000
    4327 H           16.7065     2.3690    22.4466 opls_140      1 RES        0.060000
    4328 H           15.4045     1.9955    23.5718 opls_140      1 RES        0.060000
    4329 H           15.9312     3.6570    23.4491 opls_140      1 RES        0.060000
    4330 C            2.5605    28.4291     8.3848 opls_135      1 RES       -0.180000
    4331 C            4.0541    28.1384     8.5353 opls_157      1 RES        0.145000
    4332 O            4.8597    28.3540     7.3983 opls_154      1 RES       -0.683000
    4333 H            4.6163    29.1829     7.0154 opls_155      1 RES        0.418000
    4334 H            4.1016    27.1086     8.8893 opls_140      1 RES        0.060000
    4335 H            4.5476    28.7229     9.3117 opls_140      1 RES        0.060000
    4336 H            2.5278    29.5135     8.4902 opls_140      1 RES        0.060000
    4337 H            1.9957    27.9977     9.2112 opls_140      1 RES        0.060000
    4338 H            2.0749    28.0937     7.4684 opls_140      1 RES        0.060000
    4339 C           24.4126    23.5773    33.5283 opls_135      1 RES       -0.180000
    4340 C           24.6451    25.0873    33.5886 opls_157      1 RES        0.145000
    4341 O           25.7297    25.5311    34.3727 opls_154      1 RES       -0.683000
    4342 H           26.4769    24.9852    34.1811 opls_155      1 RES        0.418000
    4343 H           23.6937    25.5009    33.9229 opls_140      1 RES        0.060000
    4344 H           24.8251    25.5513    32.6188 opls_140      1 RES        0.060000
    4345 H           25.1535    23.2619    32.7936 opls_140      1 RES        0.060000
    4346 H           23.4261    23.3521    33.1232 opls_140      1 RES        0.060000
    4347 H           24.5000    23.0195    34.4607 opls_140      1 RES        0.060000
    4348 C           33.3225     8.9527    17.9850 opls_135      1 RES       -0.180000
    4349 C           32.6589     9.0641    16.6120 opls_157      1 RES        0.145000
    4350 O           31.8112    10.1717    16.4054 opls_154      1 RES       -0.683000
    4351 H           32.2430    10.9422    16.7415 opls_155      1 RES        0.418000
    4352 H           32.1422     8.1140    16.4761 opls_140      1 RES        0.060000
    4353 H           33.3602     9.1212    15.7795 opls_140      1 RES        0.060000
    4354 H           34.1542     9.6512    17.8933 opls_140      1 RES        0.060000
    4355 H           33.7397     7.9570    18.1350 opls_140      1 RES        0.060000
    4356 H           32.7056     9.1656    18.8580 opls_140      1 RES        0.060000
    4357 C           26.4907     8.8391    18.6213 opls_135      1 RES       -0.180000
    4358 C           26.0328     9.6961    17.4407 opls_157      1 RES        0.145000
    4359 O           24.6757    10.0782    17.4232 opls_154      1 RES       -0.683000
    4360 H           24.4395    10.3727    18.2895 opls_155      1 RES        0.418000
    4361 H           26.3151     9.1238    16.5570 opls_140      1 RES        0.060000
    4362 H           26.5651    10.6421    17.3416 opls_140      1 RES        0.060000
    4363 H           26.6259     9.5845    19.4049 opls_140      1 RES        0.060000
    4364 H           27.4625     8.3883    18.4201 opls_140      1 RES        0.060000
    4365 H           25.8326     8.0298    18.9376 opls_140      1 RES        0.060000
    4366 C           15.9260    21.6144    23.5621 opls_135      1 RES       -0.180000
    4367 C           15.5542    20.1367    23.4351 opls_157      1 RES        0.145000
    4368 O           14.1785    19.8291    23.4074 opls_154      1 RES       -0.683000
    4369 H           13.7509    20.4351    22.8218 opls_155      1 RES        0.418000
    4370 H           16.0729    19.6486    24.2602 opls_140      1 RES        0.060000
    4371 H           15.9414    19.6535    22.5380 opls_140      1 RES        0.060000
    4372 H           15.8036    21.9688    22.5386 opls_140      1 RES        0.060000
    4373 H           16.9762    21.7290    23.8302 opls_140      1 RES        0.060000
    4374 H           15.3571    22.2146    24.2721 opls_140      1 RES        0.060000
    4375 C           19.0223    15.8282     7.3661 opls_135      1 RES       -0.180000
    4376 C           18.2812    17.1446     7.6017 opls_157      1 RES        0.145000
    4377 O           18.0966    17.5371     8.9434 opls_154      1 RES       -0.683000
    4378 H           18.9120    17.4108     9.4040 opls_155      1 RES        0.418000
    4379 H           17.3374    17.0305     7.0684 opls_140      1 RES        0.060000
    4380 H           18.7558    18.0132     7.1452 opls_140      1 RES        0.060000
    4381 H           20.0633    16.1282     7.4868 opls_140      1 RES        0.060000
    4382 H           18.8916    15.4873     6.3391 opls_140      1 RES        0.060000
    4383 H           18.7637    14.9861     8.0080 opls_140      1 RES        0.060000
    4384 C            7.7543    29.6448    27.1619 opls_135      1 RES       -0.180000
    4385 C            6.5086    30.3411    26.6131 opls_157      1 RES        0.145000
    4386 O            5.4243    29.5131    26.2570 opls_154      1 RES       -0.683000
    4387 H            5.2977    28.8781    26.9453 opls_155      1 RES        0.418000
    4388 H            6.8705    30.9359    25.7745 opls_140      1 RES        0.060000
    4389 H            6.0632    31.0646    27.2959 opls_140      1 RES        0.060000
    4390 H            7.4739    29.4602    28.1989 opls_140      1 RES        0.060000
    4391 H            8.6086    30.3218    27.1640 opls_140      1 RES        0.060000
    4392 H            8.0812    28.7342    26.6597 opls_140      1 RES        0.060000
    4393 C           32.8987     8.2395    10.1548 opls_135      1 RES       -0.180000
    4394 C           31.9934     8.0961     8.9310 opls_157      1 RES        0.145000
    4395 O           32.5931     8.3006     7.6713 opls_154      1 RES       -0.683000
    4396 H           33.4173     7.8385     7.6568 opls_155      1 RES        0.418000
    4397 H           31.1678     8.7836     9.1149 opls_140      1 RES        0.060000
    4398 H           31.5242     7.1171     8.8338 opls_140      1 RES        0.060000
    4399 H           33.4110     7.2776    10.1731 opls_140      1 RES        0.060000
    4400 H           32.3081     8.3188    11.0675 opls_140      1 RES        0.060000
    4401 H           33.5989     9.0747    10.1646 opls_140      1 RES        0.060000
    4402 C           14.4292     6.4205    29.9262 opls_135      1 RES       -0.180000
    4403 C           14.7792     7.7006    29.1668 opls_157      1 RES        0.145000
    4404 O           14.6189     7.6709    27.7663 opls_154      1 RES       -0.683000
    4405 H           13.7879     7.2653    27.5715 opls_155      1 RES        0.418000
    4406 H           15.8032     7.9275    29.4634 opls_140      1 RES        0.060000
    4407 H           14.2013     8.5734    29.4709 opls_140      1 RES        0.060000
    4408 H           13.3425     6.4815    29.9867 opls_140      1 RES        0.060000
    4409 H           14.8210     6.4527    30.9429 opls_140      1 RES        0.060000
    4410 H           14.7612     5.4760    29.4953 opls_140      1 RES        0.060000
    4411 C           15.8557    32.7695    12.8593 opls_135      1 RES       -0.180000
    4412 C           16.0463    33.6724    14.0784 opls_157      1 RES        0.145000
    4413 O           15.9536    33.0572    15.3437 opls_154      1 RES       -0.683000
    4414 H           16.4486    32.2526    15.3191 opls_155      1 RES        0.418000
    4415 H           15.3148    34.4702    13.9494 opls_140      1 RES        0.060000
    4416 H           17.0098    34.1809    14.1122 opls_140      1 RES        0.060000
    4417 H           16.8340    32.2972    12.7705 opls_140      1 RES        0.060000
    4418 H           15.6897    33.3618    11.9594 opls_140      1 RES        0.060000
    4419 H           15.0508    32.0356    12.9006 opls_140      1 RES        0.060000
    4420 C           10.5742    16.7434     2.9330 opls_135      1 RES       -0.180000
    4421 C            9.4888    17.8181     2.8638 opls_157      1 RES        0.145000
    4422 O            8.4220    17.5853     1.9716 opls_154      1 RES       -0.683000
    4423 H            8.1388    16.6897     2.0754 opls_155      1 RES        0.418000
    4424 H           10.0254    18.7397     2.6387 opls_140      1 RES        0.060000
    4425 H            8.9894    18.0113     3.8132 opls_140      1 RES        0.060000
    4426 H           10.1142    15.9964     3.5798 opls_140      1 RES        0.060000
    4427 H           11.4623    17.1205     3.4401 opls_140      1 RES        0.060000
    4428 H           10.9139    16.3133     1.9908 opls_140      1 RES        0.060000
    4429 C           23.7411    21.0529    22.7028 opls_135      1 RES       -0.180000
    4430 C           22.8816    21.5370    21.5345 opls_157      1 RES        0.145000
    4431 O           22.1146    20.5616    20.8648 opls_154      1 RES       -0.683000
    4432 H           21.6962    20.0166    21.5136 opls_155      1 RES        0.418000
    4433 H           23.5792    22.0460    20.8695 opls_140      1 RES        0.060000
    4434 H           22.1482    22.2972    21.8035 opls_140      1 RES        0.060000
    4435 H           23.0110    20.9835    23.5092 opls_140      1 RES        0.060000
    4436 H           24.4756    21.8078    22.9834 opls_140      1 RES        0.060000
    4437 H           24.2898    20.1208    22.5682 opls_140      1 RES        0.060000
    4438 C            5.9627    17.0836    20.6579 opls_135      1 RES       -0.180000
    4439 C            5.7743    17.4018    19.1743 opls_157      1 RES        0.145000
    4440 O            5.7837    16.3077    18.2850 opls_154      1 RES       -0.683000
    4441 H            5.2468    15.6223    18.6524 opls_155      1 RES        0.418000
    4442 H            6.5527    18.1298    18.9461 opls_140      1 RES        0.060000
    4443 H            4.8394    17.9115    18.9413 opls_140      1 RES        0.060000
    4444 H            4.9642    16.7579    20.9496 opls_140      1 RES        0.060000
    4445 H            6.1958    17.9865    21.2222 opls_140      1 RES        0.060000
    4446 H            6.7239    16.3487    20.9197 opls_140      1 RES        0.060000
    4447 C           23.8974     7.7291    30.4563 opls_135      1 RES       -0.180000
    4448 C           23.4404     6.7805    29.3476 opls_157      1 RES        0.145000
    4449 O           23.4961     7.2740    28.0279 opls_154      1 RES       -0.683000
    4450 H           24.3257     7.7107    27.9095 opls_155      1 RES        0.418000
    4451 H           22.4332     6.4807    29.6372 opls_140      1 RES        0.060000
    4452 H           24.0040     5.8490    29.2953 opls_140      1 RES        0.060000
    4453 H           24.9821     7.6376    30.4015 opls_140      1 RES        0.060000
    4454 H           23.5820     7.3645    31.4339 opls_140      1 RES        0.060000
    4455 H           23.5721     8.7675    30.3925 opls_140      1 RES        0.060000
    4456 C           18.2894     5.5552    20.1759 opls_135      1 RES       -0.180000
    4457 C           19.7730     5.3332    19.8799 opls_157      1 RES        0.145000
    4458 O           20.6707     6.2991    20.3792 opls_154      1 RES       -0.683000
    4459 H           20.4316     6.4921    21.2728 opls_155      1 RES        0.418000
    4460 H           19.8276     5.2361    18.7956 opls_140      1 RES        0.060000
    4461 H           20.1701     4.3936    20.2640 opls_140      1 RES        0.060000
    4462 H           18.2052     5.1942    21.2010 opls_140      1 RES        0.060000
    4463 H           17.6682     4.9176    19.5469 opls_140      1 RES        0.060000
    4464 H           17.9034     6.5688    20.0677 opls_140      1 RES        0.060000
    4465 C           33.4304    17.5163    24.3101 opls_135      1 RES       -0.180000
    4466 C           33.6255    16.6575    23.0602 opls_157      1 RES        0.145000
    4467 O           33.8370    17.3431    21.8464 opls_154      1 RES       -0.683000
    4468 H           34.4650    18.0321    22.0007 opls_155      1 RES        0.418000
    4469 H           32.7465    16.0138    23.0264 opls_140      1 RES        0.060000
    4470 H           34.4709    15.9717    23.1161 opls_140      1 RES        0.060000
    4471 H           34.4560    17.7816    24.5665 opls_140      1 RES        0.060000
    4472 H           33.0257    16.9228    25.1299 opls_140      1 RES        0.060000
    4473 H           32.7925    18.3955    24.2190 opls_140      1 RES        0.060000
    4474 C           17.7269     5.7367    31.5812 opls_135      1 RES       -0.180000
    4475 C           18.4239     7.0936    31.6848 opls_157      1 RES        0.145000
    4476 O           19.7078     7.1924    31.1104 opls_154      1 RES       -0.683000
    4477 H           19.6844     6.7814    30.2598 opls_155      1 RES        0.418000
    4478 H           18.4263     7.3232    32.7503 opls_140      1 RES        0.060000
    4479 H           17.8748     7.9149    31.2242 opls_140      1 RES        0.060000
    4480 H           17.3380     5.7575    30.5631 opls_140      1 RES        0.060000
    4481 H           16.8763     5.6840    32.2608 opls_140      1 RES        0.060000
    4482 H           18.3298     4.8483    31.7692 opls_140      1 RES        0.060000
    4483 C           16.1167    13.8563    25.7868 opls_135      1 RES       -0.180000
    4484 C           17.6436    13.9358    25.7802 opls_157      1 RES        0.145000
    4485 O           18.2532    14.3220    24.5688 opls_154      1 RES       -0.683000
    4486 H           17.7795    15.0622    24.2213 opls_155      1 RES        0.418000
    4487 H           17.9737    12.9531    26.1170 opls_140      1 RES        0.060000
    4488 H           18.0584    14.6334    26.5078 opls_140      1 RES        0.060000
    4489 H           15.8347    14.9024    25.9060 opls_140      1 RES        0.060000
    4490 H           15.7598    13.3140    26.6623 opls_140      1 RES        0.060000
    4491 H           15.6353    13.4003    24.9217 opls_140      1 RES        0.060000
    4492 C            2.8376    14.5823     2.7184 opls_135      1 RES       -0.180000
    4493 C            3.6501    13.5356     3.4815 opls_157      1 RES        0.145000
    4494 O            3.0634    13.0049     4.6487 opls_154      1 RES       -0.683000
    4495 H            2.1608    12.7989     4.4595 opls_155      1 RES        0.418000
    4496 H            4.6071    14.0182     3.6797 opls_140      1 RES        0.060000
    4497 H            3.9004    12.6503     2.8970 opls_140      1 RES        0.060000
    4498 H            2.1362    13.9630     2.1593 opls_140      1 RES        0.060000
    4499 H            3.4628    15.1096     1.9979 opls_140      1 RES        0.060000
    4500 H            2.3284    15.3466     3.3055 opls_140      1 RES        0.060000
@<TRIPOS>BOND
       1        2        1 1
       2        3        2 1
       3        4        3 1
       4        5        2 1
       5        6        2 1
       6        7        1 1
       7        8        1 1
       8        9        1 1
       9       11       10 1
      10       12       11 1
      11       13       12 1
      12       14       11 1
      13       15       11 1
      14       16       10 1
      15       17       10 1
      16       18       10 1
      17       20       19 1
      18       21       20 1
      19       22       21 1
      20       23       20 1
      21       24       20 1
      22       25       19 1
      23       26       19 1
      24       27       19 1
      25       29       28 1
      26       30       29 1
      27       31       30 1
      28       32       29 1
      29       33       29 1
      30       34       28 1
      31       35       28 1
      32       36       28 1
      33       38       37 1
      34       39       38 1
      35       40       39 1
      36       41       38 1
      37       42       38 1
      38       43       37 1
      39       44       37 1
      40       45       37 1
      41       47       46 1
      42       48       47 1
      43       49       48 1
      44       50       47 1
      45       51       47 1
      46       52       46 1
      47       53       46 1
      48       54       46 1
      49       56       55 1
      50       57       56 1
      51       58       57 1
      52       59       56 1
      53       60       56 1
      54       61       55 1
      55       62       55 1
      56       63       55 1
      57       65       64 1
      58       66       65 1
      59       67       66 1
      60       68       65 1
      61       69       65 1
      62       70       64 1
      63       71       64 1
      64       72       64 1
      65       74       73 1
      66       75       74 1
      67       76       75 1
      68       77       74 1
      69       78       74 1
      70       79       73 1
      71       80       73 1
      72       81       73 1
      73       83       82 1
      74       84       83 1
      75       85       84 1
      76       86       83 1
      77       87       83 1
      78       88       82 1
      79       89       82 1
      80       90       82 1
      81       92       91 1
      82       93       92 1
      83       94       93 1
      84       95       92 1
      85       96       92 1
      86       97       91 1
      87       98       91 1
      88       99       91 1
      89      101      100 1
      90      102      101 1
      91      103      102 1
      92      104      101 1
      93      105      101 1
      94      106      100 1
      95      107      100 1
      96      108      100 1
      97      110      109 1
      98      111      110 1
      99      112      111 1
     100      113      110 1
     101      114      110 1
     102      115      109 1
     103      116      109 1
     104      117      109 1
     105      119      118 1
     106      120      119 1
     107      121      120 1
     108      122      119 1
     109      123      119 1
     110      124      118 1
     111      125      118 1
     112      126      118 1
     113      128      127 1
     114      129      128 1
     115      130      129 1
     116      131      128 1
     117      132      128 1
     118      133      127 1
     119      134      127 1
     120      135      127 1
     121      137      136 1
     122      138      137 1
     123      139      138 1
     124      140      137 1
     125      141      137 1
     126      142      136 1
     127      143      136 1
     128      144      136 1
     129      146      145 1
     130      147      146 1
     131      148      147 1
     132      149      146 1
     133      150      146 1
     134      151      145 1
     135      152      145 1
     136      153      145 1
     137      155      154 1
     138      156      155 1
     139      157      156 1
     140      158      155 1
     141      159      155 1
     142      160      154 1
     143      161      154 1
     144      162      154 1
     145      164      163 1
     146      165      164 1
     147      166      165 1
     148      167      164 1
     149      168      164 1
     150      169      163 1
     151      170      163 1
     152      171      163 1
     153      173      172 1
     154      174      173 1
     155      175      174 1
     156      176      173 1
     157      177      173 1
     158      178      172 1
     159      179      172 1
     160      180      172 1
     161      182      181 1
     162      183      182 1
     163      184      183 1
     164      185      182 1
     165      186      182 1
     166      187      181 1
     167      188      181 1
     168      189      181 1
     169      191      190 1
     170      192      191 1
     171      193      192 1
     172      194      191 1
     173      195      191 1
     174      196      190 1
     175      197      190 1
     176      198      190 1
     177      200      199 1
     178      201      200 1
     179      202      201 1
     180      203      200 1
     181      204      200 1
     182      205      199 1
     183      206      199 1
     184      207      199 1
     185      209      208 1
     186      210      209 1
     187      211      210 1
     188      212      209 1
     189      213      209 1
     190      214      208 1
     191      215      208 1
     192      216      208 1
     193      218      217 1
     194      219      218 1
     195      220      219 1
     196      221      218 1
     197      222      218 1
     198      223      217 1
     199      224      217 1
     200      225      217 1
     201      227      226 1
     202      228      227 1
     203      229      228 1
     204      230      227 1
     205      231      227 1
     206      232      226 1
     207      233      226 1
     208      234      226 1
     209      236      235 1
     210      237      236 1
     211      238      237 1
     212      239      236 1
     213      240      236 1
     214      241      235 1
     215      242      235 1
     216      243      235 1
     217      245      244 1
     218      246      245 1
     219      247      246 1
     220      248      245 1
     221      249      245 1
     222      250      244 1
     223      251      244 1
     224      252      244 1
     225      254      253 1
     226      255      254 1
     227      256      255 1
     228      257      254 1
     229      258      254 1
     230      259      253 1
     231      260      253 1
     232      261      253 1
     233      263      262 1
     234      264      263 1
     235      265      264 1
     236      266      263 1
     237      267      263 1
     238      268      262 1
     239      269      262 1
     240      270      262 1
     241      272      271 1
     242      273      272 1
     243      274      273 1
     244      275      272 1
     245      276      272 1
     246      277      271 1
     247      278      271 1
     248      279      271 1
     249      281      280 1
     250      282      281 1
     251      283      282 1
     252      284      281 1
     253      285      281 1
     254      286      280 1
     255      287      280 1
     256      288      280 1
     257      290      289 1
     258      291      290 1
     259      292      291 1
     260      293      290 1
     261      294      290 1
     262      295      289 1
     263      296      289 1
     264      297      289 1
     265      299      298 1
     266      300      299 1
     267      301      300 1
     268      302      299 1
     269      303      299 1
     270      304      298 1
     271      305      298 1
     272      306      298 1
     273      308      307 1
     274      309      308 1
     275      310      309 1
     276      311      308 1
     277      312      308 1
     278      313      307 1
     279      314      307 1
     280      315      307 1
     281      317      316 1
     282      318      317 1
     283      319      318 1
     284      320      317 1
     285      321      317 1
     286      322      316 1
     287      323      316 1
     288      324      316 1
     289      326      325 1
     290      327      326 1
     291      328      327 1
     292      329      326 1
     293      330      326 1
     294      331      325 1
     295      332      325 1
     296      333      325 1
     297      335      334 1
     298      336      335 1
     299      337      336 1
     300      338      335 1
     301      339      335 1
     302      340      334 1
     303      341      334 1
     304      342      334 1
     305      344      343 1
     306      345      344 1
     307      346      345 1
     308      347      344 1
     309      348      344 1
     310      349      343 1
     311      350      343 1
     312      351      343 1
     313      353      352 1
     314      354      353 1
     315      355      354 1
     316      356      353 1
     317      357      353 1
     318      358      352 1
     319      359      352 1
     320      360      352 1
     321      362      361 1
     322      363      362 1
     323      364      363 1
     324      365      362 1
     325      366      362 1
     326      367      361 1
     327      368      361 1
     328      369      361 1
     329      371      370 1
     330      372      371 1
     331      373      372 1
     332      374      371 1
     333      375      371 1
     334      376      370 1
     335      377      370 1
     336      378      370 1
     337      380      379 1
     338      381      380 1
     339      382      381 1
     340      383      380 1
     341      384      380 1
     342      385      379 1
     343      386      379 1
     344      387      379 1
     345      389      388 1
     346      390      389 1
     347      391      390 1
     348      392      389 1
     349      393      389 1
     350      394      388 1
     351      395      388 1
     352      396      388 1
     353      398      397 1
     354      399      398 1
     355      400      399 1
     356      401      398 1
     357      402      398 1
     358      403      397 1
     359      404      397 1
     360      405      397 1
     361      407      406 1
     362      408      407 1
     363      409      408 1
     364      410      407 1
     365      411      407 1
     366      412      406 1
     367      413      406 1
     368      414      406 1
     369      416      415 1
     370      417      416 1
     371      418      417 1
     372      419      416 1
     373      420      416 1
     374      421      415 1
     375      422      415 1
     376      423      415 1
     377      425      424 1
     378      426      425 1
     379      427      426 1
     380      428      425 1
     381      429      425 1
     382      430      424 1
     383      431      424 1
     384      432      424 1
     385      434      433 1
     386      435      434 1
     387      436      435 1
     388      437      434 1
     389      438      434 1
     390      439      433 1
     391      440      433 1
     392      441      433 1
     393      443      442 1
     394      444      443 1
     395      445      444 1
     396      446      443 1
     397      447      443 1
     398      448      442 1
     399      449      442 1
     400      450      442 1
     401      452      451 1
     402      453      452 1
     403      454      453 1
     404      455      452 1
     405      456      452 1
     406      457      451 1
     407      458      451 1
     408      459      451 1
     409      461      460 1
     410      462      461 1
     411      463      462 1
     412      464      461 1
     413      465      461 1
     414      466      460 1
     415      467      460 1
     416      468      460 1
     417      470      469 1
     418      471      470 1
     419      472      471 1
     420      473      470 1
     421      474      470 1
     422      475      469 1
     423      476      469 1
     424      477      469 1
     425      479      478 1
     426      480      479 1
     427      481      480 1
     428      482      479 1
     429      483      479 1
     430      484      478 1
     431      485      478 1
     432      486      478 1
     433      488      487 1
     434      489      488 1
     435      490      489 1
     436      491      488 1
     437      492      488 1
     438      493      487 1
     439      494      487 1
     440      495      487 1
     441      497      496 1
     442      498      497 1
     443      499      498 1
     444      500      497 1
     445      501      497 1
     446      502      496 1
     447      503      496 1
     448      504      496 1
     449      506      505 1
     450      507      506 1
     451      508      507 1
     452      509      506 1
     453      510      506 1
     454      511      505 1
     455      512      505 1
     456      513      505 1
     457      515      514 1
     458      516      515 1
     459      517      516 1
     460      518      515 1
     461      519      515 1
     462      520      514 1
     463      521      514 1
     464      522      514 1
     465      524      523 1
     466      525      524 1
     467      526      525 1
     468      527      524 1
     469      528      524 1
     470      529      523 1
     471      530      523 1
     472      531      523 1
     473      533      532 1
     474      534      533 1
     475      535      534 1
     476      536      533 1
     477      537      533 1
     478      538      532 1
     479      539      532 1
     480      540      532 1
     481      542      541 1
     482      543      542 1
     483      544      543 1
     484      545      542 1
     485      546      542 1
     486      547      541 1
     487      548      541 1
     488      549      541 1
     489      551      550 1
     490      552      551 1
     491      553      552 1
     492      554      551 1
     493      555      551 1
     494      556      550 1
     495      557      550 1
     496      558      550 1
     497      560      559 1
     498      561      560 1
     499      562      561 1
     500      563      560 1
     501      564      560 1
     502      565      559 1
     503      566      559 1
     504      567      559 1
     505      569      568 1
     506      570      569 1
     507      571      570 1
     508      572      569 1
     509      573      569 1
     510      574      568 1
     511      575      568 1
     512      576      568 1
     513      578      577 1
     514      579      578 1
     515      580      579 1
     516      581      578 1
     517      582      578 1
     518      583      577 1
     519      584      577 1
     520      585      577 1
     521      587      586 1
     522      588      587 1
     523      589      588 1
     524      590      587 1
     525      591      587 1
     526      592      586 1
     527      593      586 1
     528      594      586 1
     529      596      595 1
     530      597      596 1
     531      598      597 1
     532      599      596 1
     533      600      596 1
     534      601      595 1
     535      602      595 1
     536      603      595 1
     537      605      604 1
     538      606      605 1
     539      607      606 1
     540      608      605 1
     541      609      605 1
     542      610      604 1
     543      611      604 1
     544      612      604 1
     545      614      613 1
     546      615      614 1
     547      616      615 1
     548      617      614 1
     549      618      614 1
     550      619      613 1
     551      620      613 1
     552      621      613 1
     553      623      622 1
     554      624      623 1
     555      625      624 1
     556      626      623 1
     557      627      623 1
     558      628      622 1
     559      629      622 1
     560      630      622 1
     561      632      631 1
     562      633      632 1
     563      634      633 1
     564      635      632 1
     565      636      632 1
     566      637      631 1
     567      638      631 1
     568      639      631 1
     569      641      640 1
     570      642      641 1
     571      643      642 1
     572      644      641 1
     573      645      641 1
     574      646      640 1
     575      647      640 1
     576      648      640 1
     577      650      649 1
     578      651      650 1
     579      652      651 1
     580      653      650 1
     581      654      650 1
     582      655      649 1
     583      656      649 1
     584      657      649 1
     585      659      658 1
     586      660      659 1
     587      661      660 1
     588      662      659 1
     589      663      659 1
     590      664      658 1
     591      665      658 1
     592      666      658 1
     593      668      667 1
     594      669      668 1
     595      670      669 1
     596      671      668 1
     597      672      668 1
     598      673      667 1
     599      674      667 1
     600      675      667 1
     601      677      676 1
     602      678      677 1
     603      679      678 1
     604      680      677 1
     605      681      677 1
     606      682      676 1
     607      683      676 1
     608      684      676 1
     609      686      685 1
     610      687      686 1
     611      688      687 1
     612      689      686 1
     613      690      686 1
     614      691      685 1
     615      692      685 1
     616      693      685 1
     617      695      694 1
     618      696      695 1
     619      697      696 1
     620      698      695 1
     621      699      695 1
     622      700      694 1
     623      701      694 1
     624      702      694 1
     625      704      703 1
     626      705      704 1
     627      706      705 1
     628      707      704 1
     629      708      704 1
     630      709      703 1
     631      710      703 1
     632      711      703 1
     633      713      712 1
     634      714      713 1
     635      715      714 1
     636      716      713 1
     637      717      713 1
     638      718      712 1
     639      719      712 1
     640      720      712 1
     641      722      721 1
     642      723      722 1
     643      724      723 1
     644      725      722 1
     645      726      722 1
     646      727      721 1
     647      728      721 1
     648      729      721 1
     649      731      730 1
     650      732      731 1
     651      733      732 1
     652      734      731 1
     653      735      731 1
     654      736      730 1
     655      737      730 1
     656      738      730 1
     657      740      739 1
     658      741      740 1
     659      742      741 1
     660      743      740 1
     661      744      740 1
     662      745      739 1
     663      746      739 1
     664      747      739 1
     665      749      748 1
     666      750      749 1
     667      751      750 1
     668      752      749 1
     669      753      749 1
     670      754      748 1
     671      755      748 1
     672      756      748 1
     673      758      757 1
     674      759      758 1
     675      760      759 1
     676      761      758 1
     677      762      758 1
     678      763      757 1
     679      764      757 1
     680      765      757 1
     681      767      766 1
     682      768      767 1
     683      769      768 1
     684      770      767 1
     685      771      767 1
     686      772      766 1
     687      773      766 1
     688      774      766 1
     689      776      775 1
     690      777      776 1
     691      778      777 1
     692      779      776 1
     693      780      776 1
     694      781      775 1
     695      782      775 1
     696      783      775 1
     697      785      784 1
     698      786      785 1
     699      787      786 1
     700      788      785 1
     701      789      785 1
     702      790      784 1
     703      791      784 1
     704      792      784 1
     705      794      793 1
     706      795      794 1
     707      796      795 1
     708      797      794 1
     709      798      794 1
     710      799      793 1
     711      800      793 1
     712      801      793 1
     713      803      802 1
     714      804      803 1
     715      805      804 1
     716      806      803 1
     717      807      803 1
     718      808      802 1
     719      809      802 1
     720      810      802 1
     721      812      811 1
     722      813      812 1
     723      814      813 1
     724      815      812 1
     725      816      812 1
     726      817      811 1
     727      818      811 1
     728      819      811 1
     729      821      820 1
     730      822      821 1
     731      823      822 1
     732      824      821 1
     733      825      821 1
     734      826      820 1
     735      827      820 1
     736      828      820 1
     737      830      829 1
     738      831      830 1
     739      832      831 1
     740      833      830 1
     741      834      830 1
     742      835      829 1
     743      836      829 1
     744      837      829 1
     745      839      838 1
     746      840      839 1
     747      841      840 1
     748      842      839 1
     749      843      839 1
     750      844      838 1
     751      845      838 1
     752      846      838 1
     753      848      847 1
     754      849      848 1
     755      850      849 1
     756      851      848 1
     757      852      848 1
     758      853      847 1
     759      854      847 1
     760      855      847 1
     761      857      856 1
     762      858      857 1
     763      859      858 1
     764      860      857 1
     765      861      857 1
     766      862      856 1
     767      863      856 1
     768      864      856 1
     769      866      865 1
     770      867      866 1
     771      868      867 1
     772      869      866 1
     773      870      866 1
     774      871      865 1
     775      872      865 1
     776      873      865 1
     777      875      874 1
     778      876      875 1
     779      877      876 1
     780      878      875 1
     781      879      875 1
     782      880      874 1
     783      881      874 1
     784      882      874 1
     785      884      883 1
     786      885      884 1
     787      886      885 1
     788      887      884 1
     789      888      884 1
     790      889      883 1
     791      890      883 1
     792      891      883 1
     793      893      892 1
     794      894      893 1
     795      895      894 1
     796      896      893 1
     797      897      893 1
     798      898      892 1
     799      899      892 1
     800      900      892 1
     801      902      901 1
     802      903      902 1
     803      904      903 1
     804      905      902 1
     805      906      902 1
     806      907      901 1
     807      908      901 1
     808      909      901 1
     809      911      910 1
     810      912      911 1
     811      913      912 1
     812      914      911 1
     813      915      911 1
     814      916      910 1
     815      917      910 1
     816      918      910 1
     817      920      919 1
     818      921      920 1
     819      922      921 1
     820      923      920 1
     821      924      920 1
     822      925      919 1
     823      926      919 1
     824      927      919 1
     825      929      928 1
     826      930      929 1
     827      931      930 1
     828      932      929 1
     829      933      929 1
     830      934      928 1
     831      935      928 1
     832      936      928 1
     833      938      937 1
     834      939      938 1
     835      940      939 1
     836      941      938 1
     837      942      938 1
     838      943      937 1
     839      944      937 1
     840      945      937 1
     841      947      946 1
     842      948      947 1
     843      949      948 1
     844      950      947 1
     845      951      947 1
     846      952      946 1
     847      953      946 1
     848      954      946 1
     849      956      955 1
     850      957      956 1
     851      958      957 1
     852      959      956 1
     853      960      956 1
     854      961      955 1
     855      962      955 1
     856      963      955 1
     857      965      964 1
     858      966      965 1
     859      967      966 1
     860      968      965 1
     861      969      965 1
     862      970      964 1
     863      971      964 1
     864      972      964 1
     865      974      973 1
     866      975      974 1
     867      976      975 1
     868      977      974 1
     869      978      974 1
     870      979      973 1
     871      980      973 1
     872      981      973 1
     873      983      982 1
     874      984      983 1
     875      985      984 1
     876      986      983 1
     877      987      983 1
     878      988      982 1
     879      989      982 1
     880      990      982 1
     881      992      991 1
     882      993      992 1
     883      994      993 1
     884      995      992 1
     885      996      992 1
     886      997      991 1
     887      998      991 1
     888      999      991 1
     889     1001     1000 1
     890     1002     1001 1
     891     1003     1002 1
     892     1004     1001 1
     893     1005     1001 1
     894     1006     1000 1
     895     1007     1000 1
     896     1008     1000 1
     897     1010     1009 1
     898     1011     1010 1
     899     1012     1011 1
     900     1013     1010 1
     901     1014     1010 1
     902     1015     1009 1
     903     1016     1009 1
     904     1017     1009 1
     905     1019     1018 1
     906     1020     1019 1
     907     1021     1020 1
     908     1022     1019 1
     909     1023     1019 1
     910     1024     1018 1
     911     1025     1018 1
     912     1026     1018 1
     913     1028     1027 1
     914     1029     1028 1
     915     1030     1029 1
     916     1031     1028 1
     917     1032     1028 1
     918     1033     1027 1
     919     1034     1027 1
     920     1035     1027 1
     921     1037     1036 1
     922     1038     1037 1
     923     1039     1038 1
     924     1040     1037 1
     925     1041     1037 1
     926     1042     1036 1
     927     1043     1036 1
     928     1044     1036 1
     929     1046     1045 1
     930     1047     1046 1
     931     1048     1047 1
     932     1049     1046 1
     933     1050     1046 1
     934     1051     1045 1
     935     1052     1045 1
     936     1053     1045 1
     937     1055     1054 1
     938     1056     1055 1
     939     1057     1056 1
     940     1058     1055 1
     941     1059     1055 1
     942     1060     1054 1
     943     1061     1054 1
     944     1062     1054 1
     945     1064     1063 1
     946     1065     1064 1
     947     1066     1065 1
     948     1067     1064 1
     949     1068     1064 1
     950     1069     1063 1
     951     1070     1063 1
     952     1071     1063 1
     953     1073     1072 1
     954     1074     1073 1
     955     1075     1074 1
     956     1076     1073 1
     957     1077     1073 1
     958     1078     1072 1
     959     1079     1072 1
     960     1080     1072 1
     961     1082     1081 1
     962     1083     1082 1
     963     1084     1083 1
     964     1085     1082 1
     965     1086     1082 1
     966     1087     1081 1
     967     1088     1081 1
     968     1089     1081 1
     969     1091     1090 1
     970     1092     1091 1
     971     1093     1092 1
     972     1094     1091 1
     973     1095     1091 1
     974     1096     1090 1
     975     1097     1090 1
     976     1098     1090 1
     977     1100     1099 1
     978     1101     1100 1
     979     1102     1101 1
     980     1103     1100 1
     981     1104     1100 1
     982     1105     1099 1
     983     1106     1099 1
     984     1107     1099 1
     985     1109     1108 1
     986     1110     1109 1
     987     1111     1110 1
     988     1112     1109 1
     989     1113     1109 1
     990     1114     1108 1
     991     1115     1108 1
     992     1116     1108 1
     993     1118     1117 1
     994     1119     1118 1
     995     1120     1119 1
     996     1121     1118 1
     997     1122     1118 1
     998     1123     1117 1
     999     1124     1117 1
    1000     1125     1117 1
    1001     1127     1126 1
    1002     1128     1127 1
    1003     1129     1128 1
    1004     1130     1127 1
    1005     1131     1127 1
    1006     1132     1126 1
    1007     1133     1126 1
    1008     1134     1126 1
    1009     1136     1135 1
    1010     1137     1136 1
    1011     1138     1137 1
    1012     1139     1136 1
    1013     1140     1136 1
    1014     1141     1135 1
    1015     1142     1135 1
    1016     1143     1135 1
    1017     1145     1144 1
    1018     1146     1145 1
    1019     1147     1146 1
    1020     1148     1145 1
    1021     1149     1145 1
    1022     1150     1144 1
    1023     1151     1144 1
    1024     1152     1144 1
    1025     1154     1153 1
    1026     1155     1154 1
    1027     1156     1155 1
    1028     1157     1154 1
    1029     1158     1154 1
    1030     1159     1153 1
    1031     1160     1153 1
    1032     1161     1153 1
    1033     1163     1162 1
    1034     1164     1163 1
    1035     1165     1164 1
    1036     1166     1163 1
    1037     1167     1163 1
    1038     1168     1162 1
    1039     1169     1162 1
    1040     1170     1162 1
    1041     1172     1171 1
    1042     1173     1172 1
    1043     1174     1173 1
    1044     1175     1172 1
    1045     1176     1172 1
    1046     1177     1171 1
    1047     1178     1171 1
    1048     1179     1171 1
    1049     1181     1180 1
    1050     1182     1181 1
    1051     1183     1182 1
    1052     1184     1181 1
    1053     1185     1181 1
    1054     1186     1180 1
    1055     1187     1180 1
    1056     1188     1180 1
    1057     1190     1189 1
    1058     1191     1190 1
    1059     1192     1191 1
    1060     1193     1190 1
    1061     1194     1190 1
    1062     1195     1189 1
    1063     1196     1189 1
    1064     1197     1189 1
    1065     1199     1198 1
    1066     1200     1199 1
    1067     1201     1200 1
    1068     1202     1199 1
    1069     1203     1199 1
    1070     1204     1198 1
    1071     1205     1198 1
    1072     1206     1198 1
    1073     1208     1207 1
    1074     1209     1208 1
    1075     1210     1209 1
    1076     1211     1208 1
    1077     1212     1208 1
    1078     1213     1207 1
    1079     1214     1207 1
    1080     1215     1207 1
    1081     1217     1216 1
    1082     1218     1217 1
    1083     1219     1218 1
    1084     1220     1217 1
    1085     1221     1217 1
    1086     1222     1216 1
    1087     1223     1216 1
    1088     1224     1216 1
    1089     1226     1225 1
    1090     1227     1226 1
    1091     1228     1227 1
    1092     1229     1226 1
    1093     1230     1226 1
    1094     1231     1225 1
    1095     1232     1225 1
    1096     1233     1225 1
    1097     1235     1234 1
    1098     1236     1235 1
    1099     1237     1236 1
    1100     1238     1235 1
    1101     1239     1235 1
    1102     1240     1234 1
    1103     1241     1234 1
    1104     1242     1234 1
    1105     1244     1243 1
    1106     1245     1244 1
    1107     1246     1245 1
    1108     1247     1244 1
    1109     1248     1244 1
    1110     1249     1243 1
    1111     1250     1243 1
    1112     1251     1243 1
    1113     1253     1252 1
    1114     1254     1253 1
    1115     1255     1254 1
    1116     1256     1253 1
    1117     1257     1253 1
    1118     1258     1252 1
    1119     1259     1252 1
    1120     1260     1252 1
    1121     1262     1261 1
    1122     1263     1262 1
    1123     1264     1263 1
    1124     1265     1262 1
    1125     1266     1262 1
    1126     1267     1261 1
    1127     1268     1261 1
    1128     1269     1261 1
    1129     1271     1270 1
    1130     1272     1271 1
    1131     1273     1272 1
    1132     1274     1271 1
    1133     1275     1271 1
    1134     1276     1270 1
    1135     1277     1270 1
    1136     1278     1270 1
    1137     1280     1279 1
    1138     1281     1280 1
    1139     1282     1281 1
    1140     1283     1280 1
    1141     1284     1280 1
    1142     1285     1279 1
    1143     1286     1279 1
    1144     1287     1279 1
    1145     1289     1288 1
    1146     1290     1289 1
    1147     1291     1290 1
    1148     1292     1289 1
    1149     1293     1289 1
    1150     1294     1288 1
    1151     1295     1288 1
    1152     1296     1288 1
    1153     1298     1297 1
    1154     1299     1298 1
    1155     1300     1299 1
    1156     1301     1298 1
    1157     1302     1298 1
    1158     1303     1297 1
    1159     1304     1297 1
    1160     1305     1297 1
    1161     1307     1306 1
    1162     1308     1307 1
    1163     1309     1308 1
    1164     1310     1307 1
    1165     1311     1307 1
    1166     1312     1306 1
    1167     1313     1306 1
    1168     1314     1306 1
    1169     1316     1315 1
    1170     1317     1316 1
    1171     1318     1317 1
    1172     1319     1316 1
    1173     1320     1316 1
    1174     1321     1315 1
    1175     1322     1315 1
    1176     1323     1315 1
    1177     1325     1324 1
    1178     1326     1325 1
    1179     1327     1326 1
    1180     1328     1325 1
    1181     1329     1325 1
    1182     1330     1324 1
    1183     1331     1324 1
    1184     1332     1324 1
    1185     1334     1333 1
    1186     1335     1334 1
    1187     1336     1335 1
    1188     1337     1334 1
    1189     1338     1334 1
    1190     1339     1333 1
    1191     1340     1333 1
    1192     1341     1333 1
    1193     1343     1342 1
    1194     1344     1343 1
    1195     1345     1344 1
    1196     1346     1343 1
    1197     1347     1343 1
    1198     1348     1342 1
    1199     1349     1342 1
    1200     1350     1342 1
    1201     1352     1351 1
    1202     1353     1352 1
    1203     1354     1353 1
    1204     1355     1352 1
    1205     1356     1352 1
    1206     1357     1351 1
    1207     1358     1351 1
    1208     1359     1351 1
    1209     1361     1360 1
    1210     1362     1361 1
    1211     1363     1362 1
    1212     1364     1361 1
    1213     1365     1361 1
    1214     1366     1360 1
    1215     1367     1360 1
    1216     1368     1360 1
    1217     1370     1369 1
    1218     1371     1370 1
    1219     1372     1371 1
    1220     1373     1370 1
    1221     1374     1370 1
    1222     1375     1369 1
    1223     1376     1369 1
    1224     1377     1369 1
    1225     1379     1378 1
    1226     1380     1379 1
    1227     1381     1380 1
    1228     1382     1379 1
    1229     1383     1379 1
    1230     1384     1378 1
    1231     1385     1378 1
    1232     1386     1378 1
    1233     1388     1387 1
    1234     1389     1388 1
    1235     1390     1389 1
    1236     1391     1388 1
    1237     1392     1388 1
    1238     1393     1387 1
    1239     1394     1387 1
    1240     1395     1387 1
    1241     1397     1396 1
    1242     1398     1397 1
    1243     1399     1398 1
    1244     1400     1397 1
    1245     1401     1397 1
    1246     1402     1396 1
    1247     1403     1396 1
    1248     1404     1396 1
    1249     1406     1405 1
    1250     1407     1406 1
    1251     1408     1407 1
    1252     1409     1406 1
    1253     1410     1406 1
    1254     1411     1405 1
    1255     1412     1405 1
    1256     1413     1405 1
    1257     1415     1414 1
    1258     1416     1415 1
    1259     1417     1416 1
    1260     1418     1415 1
    1261     1419     1415 1
    1262     1420     1414 1
    1263     1421     1414 1
    1264     1422     1414 1
    1265     1424     1423 1
    1266     1425     1424 1
    1267     1426     1425 1
    1268     1427     1424 1
    1269     1428     1424 1
    1270     1429     1423 1
    1271     1430     1423 1
    1272     1431     1423 1
    1273     1433     1432 1
    1274     1434     1433 1
    1275     1435     1434 1
    1276     1436     1433 1
    1277     1437     1433 1
    1278     1438     1432 1
    1279     1439     1432 1
    1280     1440     1432 1
    1281     1442     1441 1
    1282     1443     1442 1
    1283     1444     1443 1
    1284     1445     1442 1
    1285     1446     1442 1
    1286     1447     1441 1
    1287     1448     1441 1
    1288     1449     1441 1
    1289     1451     1450 1
    1290     1452     1451 1
    1291     1453     1452 1
    1292     1454     1451 1
    1293     1455     1451 1
    1294     1456     1450 1
    1295     1457     1450 1
    1296     1458     1450 1
    1297     1460     1459 1
    1298     1461     1460 1
    1299     1462     1461 1
    1300     1463     1460 1
    1301     1464     1460 1
    1302     1465     1459 1
    1303     1466     1459 1
    1304     1467     1459 1
    1305     1469     1468 1
    1306     1470     1469 1
    1307     1471     1470 1
    1308     1472     1469 1
    1309     1473     1469 1
    1310     1474     1468 1
    1311     1475     1468 1
    1312     1476     1468 1
    1313     1478     1477 1
    1314     1479     1478 1
    1315     1480     1479 1
    1316     1481     1478 1
    1317     1482     1478 1
    1318     1483     1477 1
    1319     1484     1477 1
    1320     1485     1477 1
    1321     1487     1486 1
    1322     1488     1487 1
    1323     1489     1488 1
    1324     1490     1487 1
    1325     1491     1487 1
    1326     1492     1486 1
    1327     1493     1486 1
    1328     1494     1486 1
    1329     1496     1495 1
    1330     1497     1496 1
    1331     1498     1497 1
    1332     1499     1496 1
    1333     1500     1496 1
    1334     1501     1495 1
    1335     1502     1495 1
    1336     1503     1495 1
    1337     1505     1504 1
    1338     1506     1505 1
    1339     1507     1506 1
    1340     1508     1505 1
    1341     1509     1505 1
    1342     1510     1504 1
    1343     1511     1504 1
    1344     1512     1504 1
    1345     1514     1513 1
    1346     1515     1514 1
    1347     1516     1515 1
    1348     1517     1514 1
    1349     1518     1514 1
    1350     1519     1513 1
    1351     1520     1513 1
    1352     1521     1513 1
    1353     1523     1522 1
    1354     1524     1523 1
    1355     1525     1524 1
    1356     1526     1523 1
    1357     1527     1523 1
    1358     1528     1522 1
    1359     1529     1522 1
    1360     1530     1522 1
    1361     1532     1531 1
    1362     1533     1532 1
    1363     1534     1533 1
    1364     1535     1532 1
    1365     1536     1532 1
    1366     1537     1531 1
    1367     1538     1531 1
    1368     1539     1531 1
    1369     1541     1540 1
    1370     1542     1541 1
    1371     1543     1542 1
    1372     1544     1541 1
    1373     1545     1541 1
    1374     1546     1540 1
    1375     1547     1540 1
    1376     1548     1540 1
    1377     1550     1549 1
    1378     1551     1550 1
    1379     1552     1551 1
    1380     1553     1550 1
    1381     1554     1550 1
    1382     1555     1549 1
    1383     1556     1549 1
    1384     1557     1549 1
    1385     1559     1558 1
    1386     1560     1559 1
    1387     1561     1560 1
    1388     1562     1559 1
    1389     1563     1559 1
    1390     1564     1558 1
    1391     1565     1558 1
    1392     1566     1558 1
    1393     1568     1567 1
    1394     1569     1568 1
    1395     1570     1569 1
    1396     1571     1568 1
    1397     1572     1568 1
    1398     1573     1567 1
    1399     1574     1567 1
    1400     1575     1567 1
    1401     1577     1576 1
    1402     1578     1577 1
    1403     1579     1578 1
    1404     1580     1577 1
    1405     1581     1577 1
    1406     1582     1576 1
    1407     1583     1576 1
    1408     1584     1576 1
    1409     1586     1585 1
    1410     1587     1586 1
    1411     1588     1587 1
    1412     1589     1586 1
    1413     1590     1586 1
    1414     1591     1585 1
    1415     1592     1585 1
    1416     1593     1585 1
    1417     1595     1594 1
    1418     1596     1595 1
    1419     1597     1596 1
    1420     1598     1595 1
    1421     1599     1595 1
    1422     1600     1594 1
    1423     1601     1594 1
    1424     1602     1594 1
    1425     1604     1603 1
    1426     1605     1604 1
    1427     1606     1605 1
    1428     1607     1604 1
    1429     1608     1604 1
    1430     1609     1603 1
    1431     1610     1603 1
    1432     1611     1603 1
    1433     1613     1612 1
    1434     1614     1613 1
    1435     1615     1614 1
    1436     1616     1613 1
    1437     1617     1613 1
    1438     1618     1612 1
    1439     1619     1612 1
    1440     1620     1612 1
    1441     1622     1621 1
    1442     1623     1622 1
    1443     1624     1623 1
    1444     1625     1622 1
    1445     1626     1622 1
    1446     1627     1621 1
    1447     1628     1621 1
    1448     1629     1621 1
    1449     1631     1630 1
    1450     1632     1631 1
    1451     1633     1632 1
    1452     1634     1631 1
    1453     1635     1631 1
    1454     1636     1630 1
    1455     1637     1630 1
    1456     1638     1630 1
    1457     1640     1639 1
    1458     1641     1640 1
    1459     1642     1641 1
    1460     1643     1640 1
    1461     1644     1640 1
    1462     1645     1639 1
    1463     1646     1639 1
    1464     1647     1639 1
    1465     1649     1648 1
    1466     1650     1649 1
    1467     1651     1650 1
    1468     1652     1649 1
    1469     1653     1649 1
    1470     1654     1648 1
    1471     1655     1648 1
    1472     1656     1648 1
    1473     1658     1657 1
    1474     1659     1658 1
    1475     1660     1659 1
    1476     1661     1658 1
    1477     1662     1658 1
    1478     1663     1657 1
    1479     1664     1657 1
    1480     1665     1657 1
    1481     1667     1666 1
    1482     1668     1667 1
    1483     1669     1668 1
    1484     1670     1667 1
    1485     1671     1667 1
    1486     1672     1666 1
    1487     1673     1666 1
    1488     1674     1666 1
    1489     1676     1675 1
    1490     1677     1676 1
    1491     1678     1677 1
    1492     1679     1676 1
    1493     1680     1676 1
    1494     1681     1675 1
    1495     1682     1675 1
    1496     1683     1675 1
    1497     1685     1684 1
    1498     1686     1685 1
    1499     1687     1686 1
    1500     1688     1685 1
    1501     1689     1685 1
    1502     1690     1684 1
    1503     1691     1684 1
    1504     1692     1684 1
    1505     1694     1693 1
    1506     1695     1694 1
    1507     1696     1695 1
    1508     1697     1694 1
    1509     1698     1694 1
    1510     1699     1693 1
    1511     1700     1693 1
    1512     1701     1693 1
    1513     1703     1702 1
    1514     1704     1703 1
    1515     1705     1704 1
    1516     1706     1703 1
    1517     1707     1703 1
    1518     1708     1702 1
    1519     1709     1702 1
    1520     1710     1702 1
    1521     1712     1711 1
    1522     1713     1712 1
    1523     1714     1713 1
    1524     1715     1712 1
    1525     1716     1712 1
    1526     1717     1711 1
    1527     1718     1711 1
    1528     1719     1711 1
    1529     1721     1720 1
    1530     1722     1721 1
    1531     1723     1722 1
    1532     1724     1721 1
    1533     1725     1721 1
    1534     1726     1720 1
    1535     1727     1720 1
    1536     1728     1720 1
    1537     1730     1729 1
    1538     1731     1730 1
    1539     1732     1731 1
    1540     1733     1730 1
    1541     1734     1730 1
    1542     1735     1729 1
    1543     1736     1729 1
    1544     1737     1729 1
    1545     1739     1738 1
    1546     1740     1739 1
    1547     1741     1740 1
    1548     1742     1739 1
    1549     1743     1739 1
    1550     1744     1738 1
    1551     1745     1738 1
    1552     1746     1738 1
    1553     1748     1747 1
    1554     1749     1748 1
    1555     1750     1749 1
    1556     1751     1748 1
    1557     1752     1748 1
    1558     1753     1747 1
    1559     1754     1747 1
    1560     1755     1747 1
    1561     1757     1756 1
    1562     1758     1757 1
    1563     1759     1758 1
    1564     1760     1757 1
    1565     1761     1757 1
    1566     1762     1756 1
    1567     1763     1756 1
    1568     1764     1756 1
    1569     1766     1765 1
    1570     1767     1766 1
    1571     1768     1767 1
    1572     1769     1766 1
    1573     1770     1766 1
    1574     1771     1765 1
    1575     1772     1765 1
    1576     1773     1765 1
    1577     1775     1774 1
    1578     1776     1775 1
    1579     1777     1776 1
    1580     1778     1775 1
    1581     1779     1775 1
    1582     1780     1774 1
    1583     1781     1774 1
    1584     1782     1774 1
    1585     1784     1783 1
    1586     1785     1784 1
    1587     1786     1785 1
    1588     1787     1784 1
    1589     1788     1784 1
    1590     1789     1783 1
    1591     1790     1783 1
    1592     1791     1783 1
    1593     1793     1792 1
    1594     1794     1793 1
    1595     1795     1794 1
    1596     1796     1793 1
    1597     1797     1793 1
    1598     1798     1792 1
    1599     1799     1792 1
    1600     1800     1792 1
    1601     1802     1801 1
    1602     1803     1802 1
    1603     1804     1803 1
    1604     1805     1802 1
    1605     1806     1802 1
    1606     1807     1801 1
    1607     1808     1801 1
    1608     1809     1801 1
    1609     1811     1810 1
    1610     1812     1811 1
    1611     1813     1812 1
    1612     1814     1811 1
    1613     1815     1811 1
    1614     1816     1810 1
    1615     1817     1810 1
    1616     1818     1810 1
    1617     1820     1819 1
    1618     1821     1820 1
    1619     1822     1821 1
    1620     1823     1820 1
    1621     1824     1820 1
    1622     1825     1819 1
    1623     1826     1819 1
    1624     1827     1819 1
    1625     1829     1828 1
    1626     1830     1829 1
    1627     1831     1830 1
    1628     1832     1829 1
    1629     1833     1829 1
    1630     1834     1828 1
    1631     1835     1828 1
    1632     1836     1828 1
    1633     1838     1837 1
    1634     1839     1838 1
    1635     1840     1839 1
    1636     1841     1838 1
    1637     1842     1838 1
    1638     1843     1837 1
    1639     1844     1837 1
    1640     1845     1837 1
    1641     1847     1846 1
    1642     1848     1847 1
    1643     1849     1848 1
    1644     1850     1847 1
    1645     1851     1847 1
    1646     1852     1846 1
    1647     1853     1846 1
    1648     1854     1846 1
    1649     1856     1855 1
    1650     1857     1856 1
    1651     1858     1857 1
    1652     1859     1856 1
    1653     1860     1856 1
    1654     1861     1855 1
    1655     1862     1855 1
    1656     1863     1855 1
    1657     1865     1864 1
    1658     1866     1865 1
    1659     1867     1866 1
    1660     1868     1865 1
    1661     1869     1865 1
    1662     1870     1864 1
    1663     1871     1864 1
    1664     1872     1864 1
    1665     1874     1873 1
    1666     1875     1874 1
    1667     1876     1875 1
    1668     1877     1874 1
    1669     1878     1874 1
    1670     1879     1873 1
    1671     1880     1873 1
    1672     1881     1873 1
    1673     1883     1882 1
    1674     1884     1883 1
    1675     1885     1884 1
    1676     1886     1883 1
    1677     1887     1883 1
    1678     1888     1882 1
    1679     1889     1882 1
    1680     1890     1882 1
    1681     1892     1891 1
    1682     1893     1892 1
    1683     1894     1893 1
    1684     1895     1892 1
    1685     1896     1892 1
    1686     1897     1891 1
    1687     1898     1891 1
    1688     1899     1891 1
    1689     1901     1900 1
    1690     1902     1901 1
    1691     1903     1902 1
    1692     1904     1901 1
    1693     1905     1901 1
    1694     1906     1900 1
    1695     1907     1900 1
    1696     1908     1900 1
    1697     1910     1909 1
    1698     1911     1910 1
    1699     1912     1911 1
    1700     1913     1910 1
    1701     1914     1910 1
    1702     1915     1909 1
    1703     1916     1909 1
    1704     1917     1909 1
    1705     1919     1918 1
    1706     1920     1919 1
    1707     1921     1920 1
    1708     1922     1919 1
    1709     1923     1919 1
    1710     1924     1918 1
    1711     1925     1918 1
    1712     1926     1918 1
    1713     1928     1927 1
    1714     1929     1928 1
    1715     1930     1929 1
    1716     1931     1928 1
    1717     1932     1928 1
    1718     1933     1927 1
    1719     1934     1927 1
    1720     1935     1927 1
    1721     1937     1936 1
    1722     1938     1937 1
    1723     1939     1938 1
    1724     1940     1937 1
    1725     1941     1937 1
    1726     1942     1936 1
    1727     1943     1936 1
    1728     1944     1936 1
    1729     1946     1945 1
    1730     1947     1946 1
    1731     1948     1947 1
    1732     1949     1946 1
    1733     1950     1946 1
    1734     1951     1945 1
    1735     1952     1945 1
    1736     1953     1945 1
    1737     1955     1954 1
    1738     1956     1955 1
    1739     1957     1956 1
    1740     1958     1955 1
    1741     1959     1955 1
    1742     1960     1954 1
    1743     1961     1954 1
    1744     1962     1954 1
    1745     1964     1963 1
    1746     1965     1964 1
    1747     1966     1965 1
    1748     1967     1964 1
    1749     1968     1964 1
    1750     1969     1963 1
    1751     1970     1963 1
    1752     1971     1963 1
    1753     1973     1972 1
    1754     1974     1973 1
    1755     1975     1974 1
    1756     1976     1973 1
    1757     1977     1973 1
    1758     1978     1972 1
    1759     1979     1972 1
    1760     1980     1972 1
    1761     1982     1981 1
    1762     1983     1982 1
    1763     1984     1983 1
    1764     1985     1982 1
    1765     1986     1982 1
    1766     1987     1981 1
    1767     1988     1981 1
    1768     1989     1981 1
    1769     1991     1990 1
    1770     1992     1991 1
    1771     1993     1992 1
    1772     1994     1991 1
    1773     1995     1991 1
    1774     1996     1990 1
    1775     1997     1990 1
    1776     1998     1990 1
    1777     2000     1999 1
    1778     2001     2000 1
    1779     2002     2001 1
    1780     2003     2000 1
    1781     2004     2000 1
    1782     2005     1999 1
    1783     2006     1999 1
    1784     2007     1999 1
    1785     2009     2008 1
    1786     2010     2009 1
    1787     2011     2010 1
    1788     2012     2009 1
    1789     2013     2009 1
    1790     2014     2008 1
    1791     2015     2008 1
    1792     2016     2008 1
    1793     2018     2017 1
    1794     2019     2018 1
    1795     2020     2019 1
    1796     2021     2018 1
    1797     2022     2018 1
    1798     2023     2017 1
    1799     2024     2017 1
    1800     2025     2017 1
    1801     2027     2026 1
    1802     2028     2027 1
    1803     2029     2028 1
    1804     2030     2027 1
    1805     2031     2027 1
    1806     2032     2026 1
    1807     2033     2026 1
    1808     2034     2026 1
    1809     2036     2035 1
    1810     2037     2036 1
    1811     2038     2037 1
    1812     2039     2036 1
    1813     2040     2036 1
    1814     2041     2035 1
    1815     2042     2035 1
    1816     2043     2035 1
    1817     2045     2044 1
    1818     2046     2045 1
    1819     2047     2046 1
    1820     2048     2045 1
    1821     2049     2045 1
    1822     2050     2044 1
    1823     2051     2044 1
    1824     2052     2044 1
    1825     2054     2053 1
    1826     2055     2054 1
    1827     2056     2055 1
    1828     2057     2054 1
    1829     2058     2054 1
    1830     2059     2053 1
    1831     2060     2053 1
    1832     2061     2053 1
    1833     2063     2062 1
    1834     2064     2063 1
    1835     2065     2064 1
    1836     2066     2063 1
    1837     2067     2063 1
    1838     2068     2062 1
    1839     2069     2062 1
    1840     2070     2062 1
    1841     2072     2071 1
    1842     2073     2072 1
    1843     2074     2073 1
    1844     2075     2072 1
    1845     2076     2072 1
    1846     2077     2071 1
    1847     2078     2071 1
    1848     2079     2071 1
    1849     2081     2080 1
    1850     2082     2081 1
    1851     2083     2082 1
    1852     2084     2081 1
    1853     2085     2081 1
    1854     2086     2080 1
    1855     2087     2080 1
    1856     2088     2080 1
    1857     2090     2089 1
    1858     2091     2090 1
    1859     2092     2091 1
    1860     2093     2090 1
    1861     2094     2090 1
    1862     2095     2089 1
    1863     2096     2089 1
    1864     2097     2089 1
    1865     2099     2098 1
    1866     2100     2099 1
    1867     2101     2100 1
    1868     2102     2099 1
    1869     2103     2099 1
    1870     2104     2098 1
    1871     2105     2098 1
    1872     2106     2098 1
    1873     2108     2107 1
    1874     2109     2108 1
    1875     2110     2109 1
    1876     2111     2108 1
    1877     2112     2108 1
    1878     2113     2107 1
    1879     2114     2107 1
    1880     2115     2107 1
    1881     2117     2116 1
    1882     2118     2117 1
    1883     2119     2118 1
    1884     2120     2117 1
    1885     2121     2117 1
    1886     2122     2116 1
    1887     2123     2116 1
    1888     2124     2116 1
    1889     2126     2125 1
    1890     2127     2126 1
    1891     2128     2127 1
    1892     2129     2126 1
    1893     2130     2126 1
    1894     2131     2125 1
    1895     2132     2125 1
    1896     2133     2125 1
    1897     2135     2134 1
    1898     2136     2135 1
    1899     2137     2136 1
    1900     2138     2135 1
    1901     2139     2135 1
    1902     2140     2134 1
    1903     2141     2134 1
    1904     2142     2134 1
    1905     2144     2143 1
    1906     2145     2144 1
    1907     2146     2145 1
    1908     2147     2144 1
    1909     2148     2144 1
    1910     2149     2143 1
    1911     2150     2143 1
    1912     2151     2143 1
    1913     2153     2152 1
    1914     2154     2153 1
    1915     2155     2154 1
    1916     2156     2153 1
    1917     2157     2153 1
    1918     2158     2152 1
    1919     2159     2152 1
    1920     2160     2152 1
    1921     2162     2161 1
    1922     2163     2162 1
    1923     2164     2163 1
    1924     2165     2162 1
    1925     2166     2162 1
    1926     2167     2161 1
    1927     2168     2161 1
    1928     2169     2161 1
    1929     2171     2170 1
    1930     2172     2171 1
    1931     2173     2172 1
    1932     2174     2171 1
    1933     2175     2171 1
    1934     2176     2170 1
    1935     2177     2170 1
    1936     2178     2170 1
    1937     2180     2179 1
    1938     2181     2180 1
    1939     2182     2181 1
    1940     2183     2180 1
    1941     2184     2180 1
    1942     2185     2179 1
    1943     2186     2179 1
    1944     2187     2179 1
    1945     2189     2188 1
    1946     2190     2189 1
    1947     2191     2190 1
    1948     2192     2189 1
    1949     2193     2189 1
    1950     2194     2188 1
    1951     2195     2188 1
    1952     2196     2188 1
    1953     2198     2197 1
    1954     2199     2198 1
    1955     2200     2199 1
    1956     2201     2198 1
    1957     2202     2198 1
    1958     2203     2197 1
    1959     2204     2197 1
    1960     2205     2197 1
    1961     2207     2206 1
    1962     2208     2207 1
    1963     2209     2208 1
    1964     2210     2207 1
    1965     2211     2207 1
    1966     2212     2206 1
    1967     2213     2206 1
    1968     2214     2206 1
    1969     2216     2215 1
    1970     2217     2216 1
    1971     2218     2217 1
    1972     2219     2216 1
    1973     2220     2216 1
    1974     2221     2215 1
    1975     2222     2215 1
    1976     2223     2215 1
    1977     2225     2224 1
    1978     2226     2225 1
    1979     2227     2226 1
    1980     2228     2225 1
    1981     2229     2225 1
    1982     2230     2224 1
    1983     2231     2224 1
    1984     2232     2224 1
    1985     2234     2233 1
    1986     2235     2234 1
    1987     2236     2235 1
    1988     2237     2234 1
    1989     2238     2234 1
    1990     2239     2233 1
    1991     2240     2233 1
    1992     2241     2233 1
    1993     2243     2242 1
    1994     2244     2243 1
    1995     2245     2244 1
    1996     2246     2243 1
    1997     2247     2243 1
    1998     2248     2242 1
    1999     2249     2242 1
    2000     2250     2242 1
    2001     2252     2251 1
    2002     2253     2252 1
    2003     2254     2253 1
    2004     2255     2252 1
    2005     2256     2252 1
    2006     2257     2251 1
    2007     2258     2251 1
    2008     2259     2251 1
    2009     2261     2260 1
    2010     2262     2261 1
    2011     2263     2262 1
    2012     2264     2261 1
    2013     2265     2261 1
    2014     2266     2260 1
    2015     2267     2260 1
    2016     2268     2260 1
    2017     2270     2269 1
    2018     2271     2270 1
    2019     2272     2271 1
    2020     2273     2270 1
    2021     2274     2270 1
    2022     2275     2269 1
    2023     2276     2269 1
    2024     2277     2269 1
    2025     2279     2278 1
    2026     2280     2279 1
    2027     2281     2280 1
    2028     2282     2279 1
    2029     2283     2279 1
    2030     2284     2278 1
    2031     2285     2278 1
    2032     2286     2278 1
    2033     2288     2287 1
    2034     2289     2288 1
    2035     2290     2289 1
    2036     2291     2288 1
    2037     2292     2288 1
    2038     2293     2287 1
    2039     2294     2287 1
    2040     2295     2287 1
    2041     2297     2296 1
    2042     2298     2297 1
    2043     2299     2298 1
    2044     2300     2297 1
    2045     2301     2297 1
    2046     2302     2296 1
    2047     2303     2296 1
    2048     2304     2296 1
    2049     2306     2305 1
    2050     2307     2306 1
    2051     2308     2307 1
    2052     2309     2306 1
    2053     2310     2306 1
    2054     2311     2305 1
    2055     2312     2305 1
    2056     2313     2305 1
    2057     2315     2314 1
    2058     2316     2315 1
    2059     2317     2316 1
    2060     2318     2315 1
    2061     2319     2315 1
    2062     2320     2314 1
    2063     2321     2314 1
    2064     2322     2314 1
    2065     2324     2323 1
    2066     2325     2324 1
    2067     2326     2325 1
    2068     2327     2324 1
    2069     2328     2324 1
    2070     2329     2323 1
    2071     2330     2323 1
    2072     2331     2323 1
    2073     2333     2332 1
    2074     2334     2333 1
    2075     2335     2334 1
    2076     2336     2333 1
    2077     2337     2333 1
    2078     2338     2332 1
    2079     2339     2332 1
    2080     2340     2332 1
    2081     2342     2341 1
    2082     2343     2342 1
    2083     2344     2343 1
    2084     2345     2342 1
    2085     2346     2342 1
    2086     2347     2341 1
    2087     2348     2341 1
    2088     2349     2341 1
    2089     2351     2350 1
    2090     2352     2351 1
    2091     2353     2352 1
    2092     2354     2351 1
    2093     2355     2351 1
    2094     2356     2350 1
    2095     2357     2350 1
    2096     2358     2350 1
    2097     2360     2359 1
    2098     2361     2360 1
    2099     2362     2361 1
    2100     2363     2360 1
    2101     2364     2360 1
    2102     2365     2359 1
    2103     2366     2359 1
    2104     2367     2359 1
    2105     2369     2368 1
    2106     2370     2369 1
    2107     2371     2370 1
    2108     2372     2369 1
    2109     2373     2369 1
    2110     2374     2368 1
    2111     2375     2368 1
    2112     2376     2368 1
    2113     2378     2377 1
    2114     2379     2378 1
    2115     2380     2379 1
    2116     2381     2378 1
    2117     2382     2378 1
    2118     2383     2377 1
    2119     2384     2377 1
    2120     2385     2377 1
    2121     2387     2386 1
    2122     2388     2387 1
    2123     2389     2388 1
    2124     2390     2387 1
    2125     2391     2387 1
    2126     2392     2386 1
    2127     2393     2386 1
    2128     2394     2386 1
    2129     2396     2395 1
    2130     2397     2396 1
    2131     2398     2397 1
    2132     2399     2396 1
    2133     2400     2396 1
    2134     2401     2395 1
    2135     2402     2395 1
    2136     2403     2395 1
    2137     2405     2404 1
    2138     2406     2405 1
    2139     2407     2406 1
    2140     2408     2405 1
    2141     2409     2405 1
    2142     2410     2404 1
    2143     2411     2404 1
    2144     2412     2404 1
    2145     2414     2413 1
    2146     2415     2414 1
    2147     2416     2415 1
    2148     2417     2414 1
    2149     2418     2414 1
    2150     2419     2413 1
    2151     2420     2413 1
    2152     2421     2413 1
    2153     2423     2422 1
    2154     2424     2423 1
    2155     2425     2424 1
    2156     2426     2423 1
    2157     2427     2423 1
    2158     2428     2422 1
    2159     2429     2422 1
    2160     2430     2422 1
    2161     2432     2431 1
    2162     2433     2432 1
    2163     2434     2433 1
    2164     2435     2432 1
    2165     2436     2432 1
    2166     2437     2431 1
    2167     2438     2431 1
    2168     2439     2431 1
    2169     2441     2440 1
    2170     2442     2441 1
    2171     2443     2442 1
    2172     2444     2441 1
    2173     2445     2441 1
    2174     2446     2440 1
    2175     2447     2440 1
    2176     2448     2440 1
    2177     2450     2449 1
    2178     2451     2450 1
    2179     2452     2451 1
    2180     2453     2450 1
    2181     2454     2450 1
    2182     2455     2449 1
    2183     2456     2449 1
    2184     2457     2449 1
    2185     2459     2458 1
    2186     2460     2459 1
    2187     2461     2460 1
    2188     2462     2459 1
    2189     2463     2459 1
    2190     2464     2458 1
    2191     2465     2458 1
    2192     2466     2458 1
    2193     2468     2467 1
    2194     2469     2468 1
    2195     2470     2469 1
    2196     2471     2468 1
    2197     2472     2468 1
    2198     2473     2467 1
    2199     2474     2467 1
    2200     2475     2467 1
    2201     2477     2476 1
    2202     2478     2477 1
    2203     2479     2478 1
    2204     2480     2477 1
    2205     2481     2477 1
    2206     2482     2476 1
    2207     2483     2476 1
    2208     2484     2476 1
    2209     2486     2485 1
    2210     2487     2486 1
    2211     2488     2487 1
    2212     2489     2486 1
    2213     2490     2486 1
    2214     2491     2485 1
    2215     2492     2485 1
    2216     2493     2485 1
    2217     2495     2494 1
    2218     2496     2495 1
    2219     2497     2496 1
    2220     2498     2495 1
    2221     2499     2495 1
    2222     2500     2494 1
    2223     2501     2494 1
    2224     2502     2494 1
    2225     2504     2503 1
    2226     2505     2504 1
    2227     2506     2505 1
    2228     2507     2504 1
    2229     2508     2504 1
    2230     2509     2503 1
    2231     2510     2503 1
    2232     2511     2503 1
    2233     2513     2512 1
    2234     2514     2513 1
    2235     2515     2514 1
    2236     2516     2513 1
    2237     2517     2513 1
    2238     2518     2512 1
    2239     2519     2512 1
    2240     2520     2512 1
    2241     2522     2521 1
    2242     2523     2522 1
    2243     2524     2523 1
    2244     2525     2522 1
    2245     2526     2522 1
    2246     2527     2521 1
    2247     2528     2521 1
    2248     2529     2521 1
    2249     2531     2530 1
    2250     2532     2531 1
    2251     2533     2532 1
    2252     2534     2531 1
    2253     2535     2531 1
    2254     2536     2530 1
    2255     2537     2530 1
    2256     2538     2530 1
    2257     2540     2539 1
    2258     2541     2540 1
    2259     2542     2541 1
    2260     2543     2540 1
    2261     2544     2540 1
    2262     2545     2539 1
    2263     2546     2539 1
    2264     2547     2539 1
    2265     2549     2548 1
    2266     2550     2549 1
    2267     2551     2550 1
    2268     2552     2549 1
    2269     2553     2549 1
    2270     2554     2548 1
    2271     2555     2548 1
    2272     2556     2548 1
    2273     2558     2557 1
    2274     2559     2558 1
    2275     2560     2559 1
    2276     2561     2558 1
    2277     2562     2558 1
    2278     2563     2557 1
    2279     2564     2557 1
    2280     2565     2557 1
    2281     2567     2566 1
    2282     2568     2567 1
    2283     2569     2568 1
    2284     2570     2567 1
    2285     2571     2567 1
    2286     2572     2566 1
    2287     2573     2566 1
    2288     2574     2566 1
    2289     2576     2575 1
    2290     2577     2576 1
    2291     2578     2577 1
    2292     2579     2576 1
    2293     2580     2576 1
    2294     2581     2575 1
    2295     2582     2575 1
    2296     2583     2575 1
    2297     2585     2584 1
    2298     2586     2585 1
    2299     2587     2586 1
    2300     2588     2585 1
    2301     2589     2585 1
    2302     2590     2584 1
    2303     2591     2584 1
    2304     2592     2584 1
    2305     2594     2593 1
    2306     2595     2594 1
    2307     2596     2595 1
    2308     2597     2594 1
    2309     2598     2594 1
    2310     2599     2593 1
    2311     2600     2593 1
    2312     2601     2593 1
    2313     2603     2602 1
    2314     2604     2603 1
    2315     2605     2604 1
    2316     2606     2603 1
    2317     2607     2603 1
    2318     2608     2602 1
    2319     2609     2602 1
    2320     2610     2602 1
    2321     2612     2611 1
    2322     2613     2612 1
    2323     2614     2613 1
    2324     2615     2612 1
    2325     2616     2612 1
    2326     2617     2611 1
    2327     2618     2611 1
    2328     2619     2611 1
    2329     2621     2620 1
    2330     2622     2621 1
    2331     2623     2622 1
    2332     2624     2621 1
    2333     2625     2621 1
    2334     2626     2620 1
    2335     2627     2620 1
    2336     2628     2620 1
    2337     2630     2629 1
    2338     2631     2630 1
    2339     2632     2631 1
    2340     2633     2630 1
    2341     2634     2630 1
    2342     2635     2629 1
    2343     2636     2629 1
    2344     2637     2629 1
    2345     2639     2638 1
    2346     2640     2639 1
    2347     2641     2640 1
    2348     2642     2639 1
    2349     2643     2639 1
    2350     2644     2638 1
    2351     2645     2638 1
    2352     2646     2638 1
    2353     2648     2647 1
    2354     2649     2648 1
    2355     2650     2649 1
    2356     2651     2648 1
    2357     2652     2648 1
    2358     2653     2647 1
    2359     2654     2647 1
    2360     2655     2647 1
    2361     2657     2656 1
    2362     2658     2657 1
    2363     2659     2658 1
    2364     2660     2657 1
    2365     2661     2657 1
    2366     2662     2656 1
    2367     2663     2656 1
    2368     2664     2656 1
    2369     2666     2665 1
    2370     2667     2666 1
    2371     2668     2667 1
    2372     2669     2666 1
    2373     2670     2666 1
    2374     2671     2665 1
    2375     2672     2665 1
    2376     2673     2665 1
    2377     2675     2674 1
    2378     2676     2675 1
    2379     2677     2676 1
    2380     2678     2675 1
    2381     2679     2675 1
    2382     2680     2674 1
    2383     2681     2674 1
    2384     2682     2674 1
    2385     2684     2683 1
    2386     2685     2684 1
    2387     2686     2685 1
    2388     2687     2684 1
    2389     2688     2684 1
    2390     2689     2683 1
    2391     2690     2683 1
    2392     2691     2683 1
    2393     2693     2692 1
    2394     2694     2693 1
    2395     2695     2694 1
    2396     2696     2693 1
    2397     2697     2693 1
    2398     2698     2692 1
    2399     2699     2692 1
    2400     2700     2692 1
    2401     2702     2701 1
    2402     2703     2702 1
    2403     2704     2703 1
    2404     2705     2702 1
    2405     2706     2702 1
    2406     2707     2701 1
    2407     2708     2701 1
    2408     2709     2701 1
    2409     2711     2710 1
    2410     2712     2711 1
    2411     2713     2712 1
    2412     2714     2711 1
    2413     2715     2711 1
    2414     2716     2710 1
    2415     2717     2710 1
    2416     2718     2710 1
    2417     2720     2719 1
    2418     2721     2720 1
    2419     2722     2721 1
    2420     2723     2720 1
    2421     2724     2720 1
    2422     2725     2719 1
    2423     2726     2719 1
    2424     2727     2719 1
    2425     2729     2728 1
    2426     2730     2729 1
    2427     2731     2730 1
    2428     2732     2729 1
    2429     2733     2729 1
    2430     2734     2728 1
    2431     2735     2728 1
    2432     2736     2728 1
    2433     2738     2737 1
    2434     2739     2738 1
    2435     2740     2739 1
    2436     2741     2738 1
    2437     2742     2738 1
    2438     2743     2737 1
    2439     2744     2737 1
    2440     2745     2737 1
    2441     2747     2746 1
    2442     2748     2747 1
    2443     2749     2748 1
    2444     2750     2747 1
    2445     2751     2747 1
    2446     2752     2746 1
    2447     2753     2746 1
    2448     2754     2746 1
    2449     2756     2755 1
    2450     2757     2756 1
    2451     2758     2757 1
    2452     2759     2756 1
    2453     2760     2756 1
    2454     2761     2755 1
    2455     2762     2755 1
    2456     2763     2755 1
    2457     2765     2764 1
    2458     2766     2765 1
    2459     2767     2766 1
    2460     2768     2765 1
    2461     2769     2765 1
    2462     2770     2764 1
    2463     2771     2764 1
    2464     2772     2764 1
    2465     2774     2773 1
    2466     2775     2774 1
    2467     2776     2775 1
    2468     2777     2774 1
    2469     2778     2774 1
    2470     2779     2773 1
    2471     2780     2773 1
    2472     2781     2773 1
    2473     2783     2782 1
    2474     2784     2783 1
    2475     2785     2784 1
    2476     2786     2783 1
    2477     2787     2783 1
    2478     2788     2782 1
    2479     2789     2782 1
    2480     2790     2782 1
    2481     2792     2791 1
    2482     2793     2792 1
    2483     2794     2793 1
    2484     2795     2792 1
    2485     2796     2792 1
    2486     2797     2791 1
    2487     2798     2791 1
    2488     2799     2791 1
    2489     2801     2800 1
    2490     2802     2801 1
    2491     2803     2802 1
    2492     2804     2801 1
    2493     2805     2801 1
    2494     2806     2800 1
    2495     2807     2800 1
    2496     2808     2800 1
    2497     2810     2809 1
    2498     2811     2810 1
    2499     2812     2811 1
    2500     2813     2810 1
    2501     2814     2810 1
    2502     2815     2809 1
    2503     2816     2809 1
    2504     2817     2809 1
    2505     2819     2818 1
    2506     2820     2819 1
    2507     2821     2820 1
    2508     2822     2819 1
    2509     2823     2819 1
    2510     2824     2818 1
    2511     2825     2818 1
    2512     2826     2818 1
    2513     2828     2827 1
    2514     2829     2828 1
    2515     2830     2829 1
    2516     2831     2828 1
    2517     2832     2828 1
    2518     2833     2827 1
    2519     2834     2827 1
    2520     2835     2827 1
    2521     2837     2836 1
    2522     2838     2837 1
    2523     2839     2838 1
    2524     2840     2837 1
    2525     2841     2837 1
    2526     2842     2836 1
    2527     2843     2836 1
    2528     2844     2836 1
    2529     2846     2845 1
    2530     2847     2846 1
    2531     2848     2847 1
    2532     2849     2846 1
    2533     2850     2846 1
    2534     2851     2845 1
    2535     2852     2845 1
    2536     2853     2845 1
    2537     2855     2854 1
    2538     2856     2855 1
    2539     2857     2856 1
    2540     2858     2855 1
    2541     2859     2855 1
    2542     2860     2854 1
    2543     2861     2854 1
    2544     2862     2854 1
    2545     2864     2863 1
    2546     2865     2864 1
    2547     2866     2865 1
    2548     2867     2864 1
    2549     2868     2864 1
    2550     2869     2863 1
    2551     2870     2863 1
    2552     2871     2863 1
    2553     2873     2872 1
    2554     2874     2873 1
    2555     2875     2874 1
    2556     2876     2873 1
    2557     2877     2873 1
    2558     2878     2872 1
    2559     2879     2872 1
    2560     2880     2872 1
    2561     2882     2881 1
    2562     2883     2882 1
    2563     2884     2883 1
    2564     2885     2882 1
    2565     2886     2882 1
    2566     2887     2881 1
    2567     2888     2881 1
    2568     2889     2881 1
    2569     2891     2890 1
    2570     2892     2891 1
    2571     2893     2892 1
    2572     2894     2891 1
    2573     2895     2891 1
    2574     2896     2890 1
    2575     2897     2890 1
    2576     2898     2890 1
    2577     2900     2899 1
    2578     2901     2900 1
    2579     2902     2901 1
    2580     2903     2900 1
    2581     2904     2900 1
    2582     2905     2899 1
    2583     2906     2899 1
    2584     2907     2899 1
    2585     2909     2908 1
    2586     2910     2909 1
    2587     2911     2910 1
    2588     2912     2909 1
    2589     2913     2909 1
    2590     2914     2908 1
    2591     2915     2908 1
    2592     2916     2908 1
    2593     2918     2917 1
    2594     2919     2918 1
    2595     2920     2919 1
    2596     2921     2918 1
    2597     2922     2918 1
    2598     2923     2917 1
    2599     2924     2917 1
    2600     2925     2917 1
    2601     2927     2926 1
    2602     2928     2927 1
    2603     2929     2928 1
    2604     2930     2927 1
    2605     2931     2927 1
    2606     2932     2926 1
    2607     2933     2926 1
    2608     2934     2926 1
    2609     2936     2935 1
    2610     2937     2936 1
    2611     2938     2937 1
    2612     2939     2936 1
    2613     2940     2936 1
    2614     2941     2935 1
    2615     2942     2935 1
    2616     2943     2935 1
    2617     2945     2944 1
    2618     2946     2945 1
    2619     2947     2946 1
    2620     2948     2945 1
    2621     2949     2945 1
    2622     2950     2944 1
    2623     2951     2944 1
    2624     2952     2944 1
    2625     2954     2953 1
    2626     2955     2954 1
    2627     2956     2955 1
    2628     2957     2954 1
    2629     2958     2954 1
    2630     2959     2953 1
    2631     2960     2953 1
    2632     2961     2953 1
    2633     2963     2962 1
    2634     2964     2963 1
    2635     2965     2964 1
    2636     2966     2963 1
    2637     2967     2963 1
    2638     2968     2962 1
    2639     2969     2962 1
    2640     2970     2962 1
    2641     2972     2971 1
    2642     2973     2972 1
    2643     2974     2973 1
    2644     2975     2972 1
    2645     2976     2972 1
    2646     2977     2971 1
    2647     2978     2971 1
    2648     2979     2971 1
    2649     2981     2980 1
    2650     2982     2981 1
    2651     2983     2982 1
    2652     2984     2981 1
    2653     2985     2981 1
    2654     2986     2980 1
    2655     2987     2980 1
    2656     2988     2980 1
    2657     2990     2989 1
    2658     2991     2990 1
    2659     2992     2991 1
    2660     2993     2990 1
    2661     2994     2990 1
    2662     2995     2989 1
    2663     2996     2989 1
    2664     2997     2989 1
    2665     2999     2998 1
    2666     3000     2999 1
    2667     3001     3000 1
    2668     3002     2999 1
    2669     3003     2999 1
    2670     3004     2998 1
    2671     3005     2998 1
    2672     3006     2998 1
    2673     3008     3007 1
    2674     3009     3008 1
    2675     3010     3009 1
    2676     3011     3008 1
    2677     3012     3008 1
    2678     3013     3007 1
    2679     3014     3007 1
    2680     3015     3007 1
    2681     3017     3016 1
    2682     3018     3017 1
    2683     3019     3018 1
    2684     3020     3017 1
    2685     3021     3017 1
    2686     3022     3016 1
    2687     3023     3016 1
    2688     3024     3016 1
    2689     3026     3025 1
    2690     3027     3026 1
    2691     3028     3027 1
    2692     3029     3026 1
    2693     3030     3026 1
    2694     3031     3025 1
    2695     3032     3025 1
    2696     3033     3025 1
    2697     3035     3034 1
    2698     3036     3035 1
    2699     3037     3036 1
    2700     3038     3035 1
    2701     3039     3035 1
    2702     3040     3034 1
    2703     3041     3034 1
    2704     3042     3034 1
    2705     3044     3043 1
    2706     3045     3044 1
    2707     3046     3045 1
    2708     3047     3044 1
    2709     3048     3044 1
    2710     3049     3043 1
    2711     3050     3043 1
    2712     3051     3043 1
    2713     3053     3052 1
    2714     3054     3053 1
    2715     3055     3054 1
    2716     3056     3053 1
    2717     3057     3053 1
    2718     3058     3052 1
    2719     3059     3052 1
    2720     3060     3052 1
    2721     3062     3061 1
    2722     3063     3062 1
    2723     3064     3063 1
    2724     3065     3062 1
    2725     3066     3062 1
    2726     3067     3061 1
    2727     3068     3061 1
    2728     3069     3061 1
    2729     3071     3070 1
    2730     3072     3071 1
    2731     3073     3072 1
    2732     3074     3071 1
    2733     3075     3071 1
    2734     3076     3070 1
    2735     3077     3070 1
    2736     3078     3070 1
    2737     3080     3079 1
    2738     3081     3080 1
    2739     3082     3081 1
    2740     3083     3080 1
    2741     3084     3080 1
    2742     3085     3079 1
    2743     3086     3079 1
    2744     3087     3079 1
    2745     3089     3088 1
    2746     3090     3089 1
    2747     3091     3090 1
    2748     3092     3089 1
    2749     3093     3089 1
    2750     3094     3088 1
    2751     3095     3088 1
    2752     3096     3088 1
    2753     3098     3097 1
    2754     3099     3098 1
    2755     3100     3099 1
    2756     3101     3098 1
    2757     3102     3098 1
    2758     3103     3097 1
    2759     3104     3097 1
    2760     3105     3097 1
    2761     3107     3106 1
    2762     3108     3107 1
    2763     3109     3108 1
    2764     3110     3107 1
    2765     3111     3107 1
    2766     3112     3106 1
    2767     3113     3106 1
    2768     3114     3106 1
    2769     3116     3115 1
    2770     3117     3116 1
    2771     3118     3117 1
    2772     3119     3116 1
    2773     3120     3116 1
    2774     3121     3115 1
    2775     3122     3115 1
    2776     3123     3115 1
    2777     3125     3124 1
    2778     3126     3125 1
    2779     3127     3126 1
    2780     3128     3125 1
    2781     3129     3125 1
    2782     3130     3124 1
    2783     3131     3124 1
    2784     3132     3124 1
    2785     3134     3133 1
    2786     3135     3134 1
    2787     3136     3135 1
    2788     3137     3134 1
    2789     3138     3134 1
    2790     3139     3133 1
    2791     3140     3133 1
    2792     3141     3133 1
    2793     3143     3142 1
    2794     3144     3143 1
    2795     3145     3144 1
    2796     3146     3143 1
    2797     3147     3143 1
    2798     3148     3142 1
    2799     3149     3142 1
    2800     3150     3142 1
    2801     3152     3151 1
    2802     3153     3152 1
    2803     3154     3153 1
    2804     3155     3152 1
    2805     3156     3152 1
    2806     3157     3151 1
    2807     3158     3151 1
    2808     3159     3151 1
    2809     3161     3160 1
    2810     3162     3161 1
    2811     3163     3162 1
    2812     3164     3161 1
    2813     3165     3161 1
    2814     3166     3160 1
    2815     3167     3160 1
    2816     3168     3160 1
    2817     3170     3169 1
    2818     3171     3170 1
    2819     3172     3171 1
    2820     3173     3170 1
    2821     3174     3170 1
    2822     3175     3169 1
    2823     3176     3169 1
    2824     3177     3169 1
    2825     3179     3178 1
    2826     3180     3179 1
    2827     3181     3180 1
    2828     3182     3179 1
    2829     3183     3179 1
    2830     3184     3178 1
    2831     3185     3178 1
    2832     3186     3178 1
    2833     3188     3187 1
    2834     3189     3188 1
    2835     3190     3189 1
    2836     3191     3188 1
    2837     3192     3188 1
    2838     3193     3187 1
    2839     3194     3187 1
    2840     3195     3187 1
    2841     3197     3196 1
    2842     3198     3197 1
    2843     3199     3198 1
    2844     3200     3197 1
    2845     3201     3197 1
    2846     3202     3196 1
    2847     3203     3196 1
    2848     3204     3196 1
    2849     3206     3205 1
    2850     3207     3206 1
    2851     3208     3207 1
    2852     3209     3206 1
    2853     3210     3206 1
    2854     3211     3205 1
    2855     3212     3205 1
    2856     3213     3205 1
    2857     3215     3214 1
    2858     3216     3215 1
    2859     3217     3216 1
    2860     3218     3215 1
    2861     3219     3215 1
    2862     3220     3214 1
    2863     3221     3214 1
    2864     3222     3214 1
    2865     3224     3223 1
    2866     3225     3224 1
    2867     3226     3225 1
    2868     3227     3224 1
    2869     3228     3224 1
    2870     3229     3223 1
    2871     3230     3223 1
    2872     3231     3223 1
    2873     3233     3232 1
    2874     3234     3233 1
    2875     3235     3234 1
    2876     3236     3233 1
    2877     3237     3233 1
    2878     3238     3232 1
    2879     3239     3232 1
    2880     3240     3232 1
    2881     3242     3241 1
    2882     3243     3242 1
    2883     3244     3243 1
    2884     3245     3242 1
    2885     3246     3242 1
    2886     3247     3241 1
    2887     3248     3241 1
    2888     3249     3241 1
    2889     3251     3250 1
    2890     3252     3251 1
    2891     3253     3252 1
    2892     3254     3251 1
    2893     3255     3251 1
    2894     3256     3250 1
    2895     3257     3250 1
    2896     3258     3250 1
    2897     3260     3259 1
    2898     3261     3260 1
    2899     3262     3261 1
    2900     3263     3260 1
    2901     3264     3260 1
    2902     3265     3259 1
    2903     3266     3259 1
    2904     3267     3259 1
    2905     3269     3268 1
    2906     3270     3269 1
    2907     3271     3270 1
    2908     3272     3269 1
    2909     3273     3269 1
    2910     3274     3268 1
    2911     3275     3268 1
    2912     3276     3268 1
    2913     3278     3277 1
    2914     3279     3278 1
    2915     3280     3279 1
    2916     3281     3278 1
    2917     3282     3278 1
    2918     3283     3277 1
    2919     3284     3277 1
    2920     3285     3277 1
    2921     3287     3286 1
    2922     3288     3287 1
    2923     3289     3288 1
    2924     3290     3287 1
    2925     3291     3287 1
    2926     3292     3286 1
    2927     3293     3286 1
    2928     3294     3286 1
    2929     3296     3295 1
    2930     3297     3296 1
    2931     3298     3297 1
    2932     3299     3296 1
    2933     3300     3296 1
    2934     3301     3295 1
    2935     3302     3295 1
    2936     3303     3295 1
    2937     3305     3304 1
    2938     3306     3305 1
    2939     3307     3306 1
    2940     3308     3305 1
    2941     3309     3305 1
    2942     3310     3304 1
    2943     3311     3304 1
    2944     3312     3304 1
    2945     3314     3313 1
    2946     3315     3314 1
    2947     3316     3315 1
    2948     3317     3314 1
    2949     3318     3314 1
    2950     3319     3313 1
    2951     3320     3313 1
    2952     3321     3313 1
    2953     3323     3322 1
    2954     3324     3323 1
    2955     3325     3324 1
    2956     3326     3323 1
    2957     3327     3323 1
    2958     3328     3322 1
    2959     3329     3322 1
    2960     3330     3322 1
    2961     3332     3331 1
    2962     3333     3332 1
    2963     3334     3333 1
    2964     3335     3332 1
    2965     3336     3332 1
    2966     3337     3331 1
    2967     3338     3331 1
    2968     3339     3331 1
    2969     3341     3340 1
    2970     3342     3341 1
    2971     3343     3342 1
    2972     3344     3341 1
    2973     3345     3341 1
    2974     3346     3340 1
    2975     3347     3340 1
    2976     3348     3340 1
    2977     3350     3349 1
    2978     3351     3350 1
    2979     3352     3351 1
    2980     3353     3350 1
    2981     3354     3350 1
    2982     3355     3349 1
    2983     3356     3349 1
    2984     3357     3349 1
    2985     3359     3358 1
    2986     3360     3359 1
    2987     3361     3360 1
    2988     3362     3359 1
    2989     3363     3359 1
    2990     3364     3358 1
    2991     3365     3358 1
    2992     3366     3358 1
    2993     3368     3367 1
    2994     3369     3368 1
    2995     3370     3369 1
    2996     3371     3368 1
    2997     3372     3368 1
    2998     3373     3367 1
    2999     3374     3367 1
    3000     3375     3367 1
    3001     3377     3376 1
    3002     3378     3377 1
    3003     3379     3378 1
    3004     3380     3377 1
    3005     3381     3377 1
    3006     3382     3376 1
    3007     3383     3376 1
    3008     3384     3376 1
    3009     3386     3385 1
    3010     3387     3386 1
    3011     3388     3387 1
    3012     3389     3386 1
    3013     3390     3386 1
    3014     3391     3385 1
    3015     3392     3385 1
    3016     3393     3385 1
    3017     3395     3394 1
    3018     3396     3395 1
    3019     3397     3396 1
    3020     3398     3395 1
    3021     3399     3395 1
    3022     3400     3394 1
    3023     3401     3394 1
    3024     3402     3394 1
    3025     3404     3403 1
    3026     3405     3404 1
    3027     3406     3405 1
    3028     3407     3404 1
    3029     3408     3404 1
    3030     3409     3403 1
    3031     3410     3403 1
    3032     3411     3403 1
    3033     3413     3412 1
    3034     3414     3413 1
    3035     3415     3414 1
    3036     3416     3413 1
    3037     3417     3413 1
    3038     3418     3412 1
    3039     3419     3412 1
    3040     3420     3412 1
    3041     3422     3421 1
    3042     3423     3422 1
    3043     3424     3423 1
    3044     3425     3422 1
    3045     3426     3422 1
    3046     3427     3421 1
    3047     3428     3421 1
    3048     3429     3421 1
    3049     3431     3430 1
    3050     3432     3431 1
    3051     3433     3432 1
    3052     3434     3431 1
    3053     3435     3431 1
    3054     3436     3430 1
    3055     3437     3430 1
    3056     3438     3430 1
    3057     3440     3439 1
    3058     3441     3440 1
    3059     3442     3441 1
    3060     3443     3440 1
    3061     3444     3440 1
    3062     3445     3439 1
    3063     3446     3439 1
    3064     3447     3439 1
    3065     3449     3448 1
    3066     3450     3449 1
    3067     3451     3450 1
    3068     3452     3449 1
    3069     3453     3449 1
    3070     3454     3448 1
    3071     3455     3448 1
    3072     3456     3448 1
    3073     3458     3457 1
    3074     3459     3458 1
    3075     3460     3459 1
    3076     3461     3458 1
    3077     3462     3458 1
    3078     3463     3457 1
    3079     3464     3457 1
    3080     3465     3457 1
    3081     3467     3466 1
    3082     3468     3467 1
    3083     3469     3468 1
    3084     3470     3467 1
    3085     3471     3467 1
    3086     3472     3466 1
    3087     3473     3466 1
    3088     3474     3466 1
    3089     3476     3475 1
    3090     3477     3476 1
    3091     3478     3477 1
    3092     3479     3476 1
    3093     3480     3476 1
    3094     3481     3475 1
    3095     3482     3475 1
    3096     3483     3475 1
    3097     3485     3484 1
    3098     3486     3485 1
    3099     3487     3486 1
    3100     3488     3485 1
    3101     3489     3485 1
    3102     3490     3484 1
    3103     3491     3484 1
    3104     3492     3484 1
    3105     3494     3493 1
    3106     3495     3494 1
    3107     3496     3495 1
    3108     3497     3494 1
    3109     3498     3494 1
    3110     3499     3493 1
    3111     3500     3493 1
    3112     3501     3493 1
    3113     3503     3502 1
    3114     3504     3503 1
    3115     3505     3504 1
    3116     3506     3503 1
    3117     3507     3503 1
    3118     3508     3502 1
    3119     3509     3502 1
    3120     3510     3502 1
    3121     3512     3511 1
    3122     3513     3512 1
    3123     3514     3513 1
    3124     3515     3512 1
    3125     3516     3512 1
    3126     3517     3511 1
    3127     3518     3511 1
    3128     3519     3511 1
    3129     3521     3520 1
    3130     3522     3521 1
    3131     3523     3522 1
    3132     3524     3521 1
    3133     3525     3521 1
    3134     3526     3520 1
    3135     3527     3520 1
    3136     3528     3520 1
    3137     3530     3529 1
    3138     3531     3530 1
    3139     3532     3531 1
    3140     3533     3530 1
    3141     3534     3530 1
    3142     3535     3529 1
    3143     3536     3529 1
    3144     3537     3529 1
    3145     3539     3538 1
    3146     3540     3539 1
    3147     3541     3540 1
    3148     3542     3539 1
    3149     3543     3539 1
    3150     3544     3538 1
    3151     3545     3538 1
    3152     3546     3538 1
    3153     3548     3547 1
    3154     3549     3548 1
    3155     3550     3549 1
    3156     3551     3548 1
    3157     3552     3548 1
    3158     3553     3547 1
    3159     3554     3547 1
    3160     3555     3547 1
    3161     3557     3556 1
    3162     3558     3557 1
    3163     3559     3558 1
    3164     3560     3557 1
    3165     3561     3557 1
    3166     3562     3556 1
    3167     3563     3556 1
    3168     3564     3556 1
    3169     3566     3565 1
    3170     3567     3566 1
    3171     3568     3567 1
    3172     3569     3566 1
    3173     3570     3566 1
    3174     3571     3565 1
    3175     3572     3565 1
    3176     3573     3565 1
    3177     3575     3574 1
    3178     3576     3575 1
    3179     3577     3576 1
    3180     3578     3575 1
    3181     3579     3575 1
    3182     3580     3574 1
    3183     3581     3574 1
    3184     3582     3574 1
    3185     3584     3583 1
    3186     3585     3584 1
    3187     3586     3585 1
    3188     3587     3584 1
    3189     3588     3584 1
    3190     3589     3583 1
    3191     3590     3583 1
    3192     3591     3583 1
    3193     3593     3592 1
    3194     3594     3593 1
    3195     3595     3594 1
    3196     3596     3593 1
    3197     3597     3593 1
    3198     3598     3592 1
    3199     3599     3592 1
    3200     3600     3592 1
    3201     3602     3601 1
    3202     3603     3602 1
    3203     3604     3603 1
    3204     3605     3602 1
    3205     3606     3602 1
    3206     3607     3601 1
    3207     3608     3601 1
    3208     3609     3601 1
    3209     3611     3610 1
    3210     3612     3611 1
    3211     3613     3612 1
    3212     3614     3611 1
    3213     3615     3611 1
    3214     3616     3610 1
    3215     3617     3610 1
    3216     3618     3610 1
    3217     3620     3619 1
    3218     3621     3620 1
    3219     3622     3621 1
    3220     3623     3620 1
    3221     3624     3620 1
    3222     3625     3619 1
    3223     3626     3619 1
    3224     3627     3619 1
    3225     3629     3628 1
    3226     3630     3629 1
    3227     3631     3630 1
    3228     3632     3629 1
    3229     3633     3629 1
    3230     3634     3628 1
    3231     3635     3628 1
    3232     3636     3628 1
    3233     3638     3637 1
    3234     3639     3638 1
    3235     3640     3639 1
    3236     3641     3638 1
    3237     3642     3638 1
    3238     3643     3637 1
    3239     3644     3637 1
    3240     3645     3637 1
    3241     3647     3646 1
    3242     3648     3647 1
    3243     3649     3648 1
    3244     3650     3647 1
    3245     3651     3647 1
    3246     3652     3646 1
    3247     3653     3646 1
    3248     3654     3646 1
    3249     3656     3655 1
    3250     3657     3656 1
    3251     3658     3657 1
    3252     3659     3656 1
    3253     3660     3656 1
    3254     3661     3655 1
    3255     3662     3655 1
    3256     3663     3655 1
    3257     3665     3664 1
    3258     3666     3665 1
    3259     3667     3666 1
    3260     3668     3665 1
    3261     3669     3665 1
    3262     3670     3664 1
    3263     3671     3664 1
    3264     3672     3664 1
    3265     3674     3673 1
    3266     3675     3674 1
    3267     3676     3675 1
    3268     3677     3674 1
    3269     3678     3674 1
    3270     3679     3673 1
    3271     3680     3673 1
    3272     3681     3673 1
    3273     3683     3682 1
    3274     3684     3683 1
    3275     3685     3684 1
    3276     3686     3683 1
    3277     3687     3683 1
    3278     3688     3682 1
    3279     3689     3682 1
    3280     3690     3682 1
    3281     3692     3691 1
    3282     3693     3692 1
    3283     3694     3693 1
    3284     3695     3692 1
    3285     3696     3692 1
    3286     3697     3691 1
    3287     3698     3691 1
    3288     3699     3691 1
    3289     3701     3700 1
    3290     3702     3701 1
    3291     3703     3702 1
    3292     3704     3701 1
    3293     3705     3701 1
    3294     3706     3700 1
    3295     3707     3700 1
    3296     3708     3700 1
    3297     3710     3709 1
    3298     3711     3710 1
    3299     3712     3711 1
    3300     3713     3710 1
    3301     3714     3710 1
    3302     3715     3709 1
    3303     3716     3709 1
    3304     3717     3709 1
    3305     3719     3718 1
    3306     3720     3719 1
    3307     3721     3720 1
    3308     3722     3719 1
    3309     3723     3719 1
    3310     3724     3718 1
    3311     3725     3718 1
    3312     3726     3718 1
    3313     3728     3727 1
    3314     3729     3728 1
    3315     3730     3729 1
    3316     3731     3728 1
    3317     3732     3728 1
    3318     3733     3727 1
    3319     3734     3727 1
    3320     3735     3727 1
    3321     3737     3736 1
    3322     3738     3737 1
    3323     3739     3738 1
    3324     3740     3737 1
    3325     3741     3737 1
    3326     3742     3736 1
    3327     3743     3736 1
    3328     3744     3736 1
    3329     3746     3745 1
    3330     3747     3746 1
    3331     3748     3747 1
    3332     3749     3746 1
    3333     3750     3746 1
    3334     3751     3745 1
    3335     3752     3745 1
    3336     3753     3745 1
    3337     3755     3754 1
    3338     3756     3755 1
    3339     3757     3756 1
    3340     3758     3755 1
    3341     3759     3755 1
    3342     3760     3754 1
    3343     3761     3754 1
    3344     3762     3754 1
    3345     3764     3763 1
    3346     3765     3764 1
    3347     3766     3765 1
    3348     3767     3764 1
    3349     3768     3764 1
    3350     3769     3763 1
    3351     3770     3763 1
    3352     3771     3763 1
    3353     3773     3772 1
    3354     3774     3773 1
    3355     3775     3774 1
    3356     3776     3773 1
    3357     3777     3773 1
    3358     3778     3772 1
    3359     3779     3772 1
    3360     3780     3772 1
    3361     3782     3781 1
    3362     3783     3782 1
    3363     3784     3783 1
    3364     3785     3782 1
    3365     3786     3782 1
    3366     3787     3781 1
    3367     3788     3781 1
    3368     3789     3781 1
    3369     3791     3790 1
    3370     3792     3791 1
    3371     3793     3792 1
    3372     3794     3791 1
    3373     3795     3791 1
    3374     3796     3790 1
    3375     3797     3790 1
    3376     3798     3790 1
    3377     3800     3799 1
    3378     3801     3800 1
    3379     3802     3801 1
    3380     3803     3800 1
    3381     3804     3800 1
    3382     3805     3799 1
    3383     3806     3799 1
    3384     3807     3799 1
    3385     3809     3808 1
    3386     3810     3809 1
    3387     3811     3810 1
    3388     3812     3809 1
    3389     3813     3809 1
    3390     3814     3808 1
    3391     3815     3808 1
    3392     3816     3808 1
    3393     3818     3817 1
    3394     3819     3818 1
    3395     3820     3819 1
    3396     3821     3818 1
    3397     3822     3818 1
    3398     3823     3817 1
    3399     3824     3817 1
    3400     3825     3817 1
    3401     3827     3826 1
    3402     3828     3827 1
    3403     3829     3828 1
    3404     3830     3827 1
    3405     3831     3827 1
    3406     3832     3826 1
    3407     3833     3826 1
    3408     3834     3826 1
    3409     3836     3835 1
    3410     3837     3836 1
    3411     3838     3837 1
    3412     3839     3836 1
    3413     3840     3836 1
    3414     3841     3835 1
    3415     3842     3835 1
    3416     3843     3835 1
    3417     3845     3844 1
    3418     3846     3845 1
    3419     3847     3846 1
    3420     3848     3845 1
    3421     3849     3845 1
    3422     3850     3844 1
    3423     3851     3844 1
    3424     3852     3844 1
    3425     3854     3853 1
    3426     3855     3854 1
    3427     3856     3855 1
    3428     3857     3854 1
    3429     3858     3854 1
    3430     3859     3853 1
    3431     3860     3853 1
    3432     3861     3853 1
    3433     3863     3862 1
    3434     3864     3863 1
    3435     3865     3864 1
    3436     3866     3863 1
    3437     3867     3863 1
    3438     3868     3862 1
    3439     3869     3862 1
    3440     3870     3862 1
    3441     3872     3871 1
    3442     3873     3872 1
    3443     3874     3873 1
    3444     3875     3872 1
    3445     3876     3872 1
    3446     3877     3871 1
    3447     3878     3871 1
    3448     3879     3871 1
    3449     3881     3880 1
    3450     3882     3881 1
    3451     3883     3882 1
    3452     3884     3881 1
    3453     3885     3881 1
    3454     3886     3880 1
    3455     3887     3880 1
    3456     3888     3880 1
    3457     3890     3889 1
    3458     3891     3890 1
    3459     3892     3891 1
    3460     3893     3890 1
    3461     3894     3890 1
    3462     3895     3889 1
    3463     3896     3889 1
    3464     3897     3889 1
    3465     3899     3898 1
    3466     3900     3899 1
    3467     3901     3900 1
    3468     3902     3899 1
    3469     3903     3899 1
    3470     3904     3898 1
    3471     3905     3898 1
    3472     3906     3898 1
    3473     3908     3907 1
    3474     3909     3908 1
    3475     3910     3909 1
    3476     3911     3908 1
    3477     3912     3908 1
    3478     3913     3907 1
    3479     3914     3907 1
    3480     3915     3907 1
    3481     3917     3916 1
    3482     3918     3917 1
    3483     3919     3918 1
    3484     3920     3917 1
    3485     3921     3917 1
    3486     3922     3916 1
    3487     3923     3916 1
    3488     3924     3916 1
    3489     3926     3925 1
    3490     3927     3926 1
    3491     3928     3927 1
    3492     3929     3926 1
    3493     3930     3926 1
    3494     3931     3925 1
    3495     3932     3925 1
    3496     3933     3925 1
    3497     3935     3934 1
    3498     3936     3935 1
    3499     3937     3936 1
    3500     3938     3935 1
    3501     3939     3935 1
    3502     3940     3934 1
    3503     3941     3934 1
    3504     3942     3934 1
    3505     3944     3943 1
    3506     3945     3944 1
    3507     3946     3945 1
    3508     3947     3944 1
    3509     3948     3944 1
    3510     3949     3943 1
    3511     3950     3943 1
    3512     3951     3943 1
    3513     3953     3952 1
    3514     3954     3953 1
    3515     3955     3954 1
    3516     3956     3953 1
    3517     3957     3953 1
    3518     3958     3952 1
    3519     3959     3952 1
    3520     3960     3952 1
    3521     3962     3961 1
    3522     3963     3962 1
    3523     3964     3963 1
    3524     3965     3962 1
    3525     3966     3962 1
    3526     3967     3961 1
    3527     3968     3961 1
    3528     3969     3961 1
    3529     3971     3970 1
    3530     3972     3971 1
    3531     3973     3972 1
    3532     3974     3971 1
    3533     3975     3971 1
    3534     3976     3970 1
    3535     3977     3970 1
    3536     3978     3970 1
    3537     3980     3979 1
    3538     3981     3980 1
    3539     3982     3981 1
    3540     3983     3980 1
    3541     3984     3980 1
    3542     3985     3979 1
    3543     3986     3979 1
    3544     3987     3979 1
    3545     3989     3988 1
    3546     3990     3989 1
    3547     3991     3990 1
    3548     3992     3989 1
    3549     3993     3989 1
    3550     3994     3988 1
    3551     3995     3988 1
    3552     3996     3988 1
    3553     3998     3997 1
    3554     3999     3998 1
    3555     4000     3999 1
    3556     4001     3998 1
    3557     4002     3998 1
    3558     4003     3997 1
    3559     4004     3997 1
    3560     4005     3997 1
    3561     4007     4006 1
    3562     4008     4007 1
    3563     4009     4008 1
    3564     4010     4007 1
    3565     4011     4007 1
    3566     4012     4006 1
    3567     4013     4006 1
    3568     4014     4006 1
    3569     4016     4015 1
    3570     4017     4016 1
    3571     4018     4017 1
    3572     4019     4016 1
    3573     4020     4016 1
    3574     4021     4015 1
    3575     4022     4015 1
    3576     4023     4015 1
    3577     4025     4024 1
    3578     4026     4025 1
    3579     4027     4026 1
    3580     4028     4025 1
    3581     4029     4025 1
    3582     4030     4024 1
    3583     4031     4024 1
    3584     4032     4024 1
    3585     4034     4033 1
    3586     4035     4034 1
    3587     4036     4035 1
    3588     4037     4034 1
    3589     4038     4034 1
    3590     4039     4033 1
    3591     4040     4033 1
    3592     4041     4033 1
    3593     4043     4042 1
    3594     4044     4043 1
    3595     4045     4044 1
    3596     4046     4043 1
    3597     4047     4043 1
    3598     4048     4042 1
    3599     4049     4042 1
    3600     4050     4042 1
    3601     4052     4051 1
    3602     4053     4052 1
    3603     4054     4053 1
    3604     4055     4052 1
    3605     4056     4052 1
    3606     4057     4051 1
    3607     4058     4051 1
    3608     4059     4051 1
    3609     4061     4060 1
    3610     4062     4061 1
    3611     4063     4062 1
    3612     4064     4061 1
    3613     4065     4061 1
    3614     4066     4060 1
    3615     4067     4060 1
    3616     4068     4060 1
    3617     4070     4069 1
    3618     4071     4070 1
    3619     4072     4071 1
    3620     4073     4070 1
    3621     4074     4070 1
    3622     4075     4069 1
    3623     4076     4069 1
    3624     4077     4069 1
    3625     4079     4078 1
    3626     4080     4079 1
    3627     4081     4080 1
    3628     4082     4079 1
    3629     4083     4079 1
    3630     4084     4078 1
    3631     4085     4078 1
    3632     4086     4078 1
    3633     4088     4087 1
    3634     4089     4088 1
    3635     4090     4089 1
    3636     4091     4088 1
    3637     4092     4088 1
    3638     4093     4087 1
    3639     4094     4087 1
    3640     4095     4087 1
    3641     4097     4096 1
    3642     4098     4097 1
    3643     4099     4098 1
    3644     4100     4097 1
    3645     4101     4097 1
    3646     4102     4096 1
    3647     4103     4096 1
    3648     4104     4096 1
    3649     4106     4105 1
    3650     4107     4106 1
    3651     4108     4107 1
    3652     4109     4106 1
    3653     4110     4106 1
    3654     4111     4105 1
    3655     4112     4105 1
    3656     4113     4105 1
    3657     4115     4114 1
    3658     4116     4115 1
    3659     4117     4116 1
    3660     4118     4115 1
    3661     4119     4115 1
    3662     4120     4114 1
    3663     4121     4114 1
    3664     4122     4114 1
    3665     4124     4123 1
    3666     4125     4124 1
    3667     4126     4125 1
    3668     4127     4124 1
    3669     4128     4124 1
    3670     4129     4123 1
    3671     4130     4123 1
    3672     4131     4123 1
    3673     4133     4132 1
    3674     4134     4133 1
    3675     4135     4134 1
    3676     4136     4133 1
    3677     4137     4133 1
    3678     4138     4132 1
    3679     4139     4132 1
    3680     4140     4132 1
    3681     4142     4141 1
    3682     4143     4142 1
    3683     4144     4143 1
    3684     4145     4142 1
    3685     4146     4142 1
    3686     4147     4141 1
    3687     4148     4141 1
    3688     4149     4141 1
    3689     4151     4150 1
    3690     4152     4151 1
    3691     4153     4152 1
    3692     4154     4151 1
    3693     4155     4151 1
    3694     4156     4150 1
    3695     4157     4150 1
    3696     4158     4150 1
    3697     4160     4159 1
    3698     4161     4160 1
    3699     4162     4161 1
    3700     4163     4160 1
    3701     4164     4160 1
    3702     4165     4159 1
    3703     4166     4159 1
    3704     4167     4159 1
    3705     4169     4168 1
    3706     4170     4169 1
    3707     4171     4170 1
    3708     4172     4169 1
    3709     4173     4169 1
    3710     4174     4168 1
    3711     4175     4168 1
    3712     4176     4168 1
    3713     4178     4177 1
    3714     4179     4178 1
    3715     4180     4179 1
    3716     4181     4178 1
    3717     4182     4178 1
    3718     4183     4177 1
    3719     4184     4177 1
    3720     4185     4177 1
    3721     4187     4186 1
    3722     4188     4187 1
    3723     4189     4188 1
    3724     4190     4187 1
    3725     4191     4187 1
    3726     4192     4186 1
    3727     4193     4186 1
    3728     4194     4186 1
    3729     4196     4195 1
    3730     4197     4196 1
    3731     4198     4197 1
    3732     4199     4196 1
    3733     4200     4196 1
    3734     4201     4195 1
    3735     4202     4195 1
    3736     4203     4195 1
    3737     4205     4204 1
    3738     4206     4205 1
    3739     4207     4206 1
    3740     4208     4205 1
    3741     4209     4205 1
    3742     4210     4204 1
    3743     4211     4204 1
    3744     4212     4204 1
    3745     4214     4213 1
    3746     4215     4214 1
    3747     4216     4215 1
    3748     4217     4214 1
    3749     4218     4214 1
    3750     4219     4213 1
    3751     4220     4213 1
    3752     4221     4213 1
    3753     4223     4222 1
    3754     4224     4223 1
    3755     4225     4224 1
    3756     4226     4223 1
    3757     4227     4223 1
    3758     4228     4222 1
    3759     4229     4222 1
    3760     4230     4222 1
    3761     4232     4231 1
    3762     4233     4232 1
    3763     4234     4233 1
    3764     4235     4232 1
    3765     4236     4232 1
    3766     4237     4231 1
    3767     4238     4231 1
    3768     4239     4231 1
    3769     4241     4240 1
    3770     4242     4241 1
    3771     4243     4242 1
    3772     4244     4241 1
    3773     4245     4241 1
    3774     4246     4240 1
    3775     4247     4240 1
    3776     4248     4240 1
    3777     4250     4249 1
    3778     4251     4250 1
    3779     4252     4251 1
    3780     4253     4250 1
    3781     4254     4250 1
    3782     4255     4249 1
    3783     4256     4249 1
    3784     4257     4249 1
    3785     4259     4258 1
    3786     4260     4259 1
    3787     4261     4260 1
    3788     4262     4259 1
    3789     4263     4259 1
    3790     4264     4258 1
    3791     4265     4258 1
    3792     4266     4258 1
    3793     4268     4267 1
    3794     4269     4268 1
    3795     4270     4269 1
    3796     4271     4268 1
    3797     4272     4268 1
    3798     4273     4267 1
    3799     4274     4267 1
    3800     4275     4267 1
    3801     4277     4276 1
    3802     4278     4277 1
    3803     4279     4278 1
    3804     4280     4277 1
    3805     4281     4277 1
    3806     4282     4276 1
    3807     4283     4276 1
    3808     4284     4276 1
    3809     4286     4285 1
    3810     4287     4286 1
    3811     4288     4287 1
    3812     4289     4286 1
    3813     4290     4286 1
    3814     4291     4285 1
    3815     4292     4285 1
    3816     4293     4285 1
    3817     4295     4294 1
    3818     4296     4295 1
    3819     4297     4296 1
    3820     4298     4295 1
    3821     4299     4295 1
    3822     4300     4294 1
    3823     4301     4294 1
    3824     4302     4294 1
    3825     4304     4303 1
    3826     4305     4304 1
    3827     4306     4305 1
    3828     4307     4304 1
    3829     4308     4304 1
    3830     4309     4303 1
    3831     4310     4303 1
    3832     4311     4303 1
    3833     4313     4312 1
    3834     4314     4313 1
    3835     4315     4314 1
    3836     4316     4313 1
    3837     4317     4313 1
    3838     4318     4312 1
    3839     4319     4312 1
    3840     4320     4312 1
    3841     4322     4321 1
    3842     4323     4322 1
    3843     4324     4323 1
    3844     4325     4322 1
    3845     4326     4322 1
    3846     4327     4321 1
    3847     4328     4321 1
    3848     4329     4321 1
    3849     4331     4330 1
    3850     4332     4331 1
    3851     4333     4332 1
    3852     4334     4331 1
    3853     4335     4331 1
    3854     4336     4330 1
    3855     4337     4330 1
    3856     4338     4330 1
    3857     4340     4339 1
    3858     4341     4340 1
    3859     4342     4341 1
    3860     4343     4340 1
    3861     4344     4340 1
    3862     4345     4339 1
    3863     4346     4339 1
    3864     4347     4339 1
    3865     4349     4348 1
    3866     4350     4349 1
    3867     4351     4350 1
    3868     4352     4349 1
    3869     4353     4349 1
    3870     4354     4348 1
    3871     4355     4348 1
    3872     4356     4348 1
    3873     4358     4357 1
    3874     4359     4358 1
    3875     4360     4359 1
    3876     4361     4358 1
    3877     4362     4358 1
    3878     4363     4357 1
    3879     4364     4357 1
    3880     4365     4357 1
    3881     4367     4366 1
    3882     4368     4367 1
    3883     4369     4368 1
    3884     4370     4367 1
    3885     4371     4367 1
    3886     4372     4366 1
    3887     4373     4366 1
    3888     4374     4366 1
    3889     4376     4375 1
    3890     4377     4376 1
    3891     4378     4377 1
    3892     4379     4376 1
    3893     4380     4376 1
    3894     4381     4375 1
    3895     4382     4375 1
    3896     4383     4375 1
    3897     4385     4384 1
    3898     4386     4385 1
    3899     4387     4386 1
    3900     4388     4385 1
    3901     4389     4385 1
    3902     4390     4384 1
    3903     4391     4384 1
    3904     4392     4384 1
    3905     4394     4393 1
    3906     4395     4394 1
    3907     4396     4395 1
    3908     4397     4394 1
    3909     4398     4394 1
    3910     4399     4393 1
    3911     4400     4393 1
    3912     4401     4393 1
    3913     4403     4402 1
    3914     4404     4403 1
    3915     4405     4404 1
    3916     4406     4403 1
    3917     4407     4403 1
    3918     4408     4402 1
    3919     4409     4402 1
    3920     4410     4402 1
    3921     4412     4411 1
    3922     4413     4412 1
    3923     4414     4413 1
    3924     4415     4412 1
    3925     4416     4412 1
    3926     4417     4411 1
    3927     4418     4411 1
    3928     4419     4411 1
    3929     4421     4420 1
    3930     4422     4421 1
    3931     4423     4422 1
    3932     4424     4421 1
    3933     4425     4421 1
    3934     4426     4420 1
    3935     4427     4420 1
    3936     4428     4420 1
    3937     4430     4429 1
    3938     4431     4430 1
    3939     4432     4431 1
    3940     4433     4430 1
    3941     4434     4430 1
    3942     4435     4429 1
    3943     4436     4429 1
    3944     4437     4429 1
    3945     4439     4438 1
    3946     4440     4439 1
    3947     4441     4440 1
    3948     4442     4439 1
    3949     4443     4439 1
    3950     4444     4438 1
    3951     4445     4438 1
    3952     4446     4438 1
    3953     4448     4447 1
    3954     4449     4448 1
    3955     4450     4449 1
    3956     4451     4448 1
    3957     4452     4448 1
    3958     4453     4447 1
    3959     4454     4447 1
    3960     4455     4447 1
    3961     4457     4456 1
    3962     4458     4457 1
    3963     4459     4458 1
    3964     4460     4457 1
    3965     4461     4457 1
    3966     4462     4456 1
    3967     4463     4456 1
    3968     4464     4456 1
    3969     4466     4465 1
    3970     4467     4466 1
    3971     4468     4467 1
    3972     4469     4466 1
    3973     4470     4466 1
    3974     4471     4465 1
    3975     4472     4465 1
    3976     4473     4465 1
    3977     4475     4474 1
    3978     4476     4475 1
    3979     4477     4476 1
    3980     4478     4475 1
    3981     4479     4475 1
    3982     4480     4474 1
    3983     4481     4474 1
    3984     4482     4474 1
    3985     4484     4483 1
    3986     4485     4484 1
    3987     4486     4485 1
    3988     4487     4484 1
    3989     4488     4484 1
    3990     4489     4483 1
    3991     4490     4483 1
    3992     4491     4483 1
    3993     4493     4492 1
    3994     4494     4493 1
    3995     4495     4494 1
    3996     4496     4493 1
    3997     4497     4493 1
    3998     4498     4492 1
    3999     4499     4492 1
    4000     4500     4492 1
@<TRIPOS>SUBSTRUCTURE
       1 RES             1 RESIDUE    0 1    ROOT      0
