@<TRIPOS>MOLECULE
RES
3300 2200 1 0 1
SMALL
USER_CHARGES
@<TRIPOS>CRYSIN
   32.0700    32.0700    32.0700    90.0000    90.0000    90.0000  1  1
@<TRIPOS>ATOM
       1 OW          25.8810    12.0312    20.5221 opls-116      1 RES       -0.847600
       2 HW1         26.6537    12.4195    21.0243 opls-117      1 RES        0.423800
       3 HW2         25.3115    11.4975    21.1472 opls-117      1 RES        0.423800
       4 OW          11.1650    16.8750    13.8613 opls-116      1 RES       -0.847600
       5 HW1         11.8772    17.2347    14.4642 opls-117      1 RES        0.423800
       6 HW2         11.1677    15.8758    13.9014 opls-117      1 RES        0.423800
       7 OW          17.3970    27.1008    15.5434 opls-116      1 RES       -0.847600
       8 HW1         16.7253    27.7498    15.9006 opls-117      1 RES        0.423800
       9 HW2         18.2873    27.5499    15.4686 opls-117      1 RES        0.423800
      10 OW          18.5714    27.5475     3.0719 opls-116      1 RES       -0.847600
      11 HW1         18.1948    27.1999     2.2132 opls-117      1 RES        0.423800
      12 HW2         19.5697    27.4968     3.0428 opls-117      1 RES        0.423800
      13 OW           3.3181    29.2300    24.6117 opls-116      1 RES       -0.847600
      14 HW1          2.5608    29.2376    23.9587 opls-117      1 RES        0.423800
      15 HW2          3.3001    30.0707    25.1530 opls-117      1 RES        0.423800
      16 OW          13.2609     6.5551    26.8995 opls-116      1 RES       -0.847600
      17 HW1         13.5989     5.7887    27.4457 opls-117      1 RES        0.423800
      18 HW2         13.8324     6.6622    26.0859 opls-117      1 RES        0.423800
      19 OW          30.0604    26.4434    23.6052 opls-116      1 RES       -0.847600
      20 HW1         30.0701    27.0129    22.7833 opls-117      1 RES        0.423800
      21 HW2         29.3556    25.7398    23.5149 opls-117      1 RES        0.423800
      22 OW          16.6645     9.4389    19.7115 opls-116      1 RES       -0.847600
      23 HW1         17.5626     9.8751    19.7673 opls-117      1 RES        0.423800
      24 HW2         16.7742     8.4453    19.7390 opls-117      1 RES        0.423800
      25 OW          14.5439    27.8923    27.7135 opls-116      1 RES       -0.847600
      26 HW1         14.7322    26.9301    27.5165 opls-117      1 RES        0.423800
      27 HW2         14.1990    27.9799    28.6480 opls-117      1 RES        0.423800
      28 OW          26.7972    15.8236    25.0199 opls-116      1 RES       -0.847600
      29 HW1         27.5080    15.3295    24.5193 opls-117      1 RES        0.423800
      30 HW2         26.2875    15.1830    25.5943 opls-117      1 RES        0.423800
      31 OW           7.3713     5.4387     4.4102 opls-116      1 RES       -0.847600
      32 HW1          6.4562     5.5934     4.0378 opls-117      1 RES        0.423800
      33 HW2          7.2967     5.1074     5.3508 opls-117      1 RES        0.423800
      34 OW          22.3739    27.6653    14.6124 opls-116      1 RES       -0.847600
      35 HW1         22.6798    28.5048    14.1633 opls-117      1 RES        0.423800
      36 HW2         23.1689    27.1151    14.8676 opls-117      1 RES        0.423800
      37 OW          27.7667     2.0536     2.9510 opls-116      1 RES       -0.847600
      38 HW1         28.3545     2.8540     3.0689 opls-117      1 RES        0.423800
      39 HW2         26.8168     2.3497     2.8507 opls-117      1 RES        0.423800
      40 OW          26.9884    20.9762     8.8916 opls-116      1 RES       -0.847600
      41 HW1         27.5467    20.6867     9.6691 opls-117      1 RES        0.423800
      42 HW2         27.4030    20.6478     8.0429 opls-117      1 RES        0.423800
      43 OW           9.4230    23.7698     3.5847 opls-116      1 RES       -0.847600
      44 HW1          9.1508    24.6495     3.9747 opls-117      1 RES        0.423800
      45 HW2          9.7924    23.1850     4.3068 opls-117      1 RES        0.423800
      46 OW           9.7747     6.5169     2.8942 opls-116      1 RES       -0.847600
      47 HW1          9.3822     6.4549     3.8119 opls-117      1 RES        0.423800
      48 HW2         10.7393     6.7718     2.9608 opls-117      1 RES        0.423800
      49 OW           5.4069    24.0132    20.5582 opls-116      1 RES       -0.847600
      50 HW1          5.2733    24.4529    21.4463 opls-117      1 RES        0.423800
      51 HW2          4.5913    23.4851    20.3216 opls-117      1 RES        0.423800
      52 OW          15.7356    10.0128    17.7686 opls-116      1 RES       -0.847600
      53 HW1         15.9563     9.0497    17.6151 opls-117      1 RES        0.423800
      54 HW2         16.5808    10.5456    17.8122 opls-117      1 RES        0.423800
      55 OW          10.3073    11.2049    29.5624 opls-116      1 RES       -0.847600
      56 HW1         11.2062    11.6056    29.3857 opls-117      1 RES        0.423800
      57 HW2          9.6041    11.7484    29.1040 opls-117      1 RES        0.423800
      58 OW           6.1430    20.6154    29.9799 opls-116      1 RES       -0.847600
      59 HW1          6.3631    20.4917    29.0123 opls-117      1 RES        0.423800
      60 HW2          5.4297    21.3100    30.0733 opls-117      1 RES        0.423800
      61 OW           4.6698     4.6270     8.8350 opls-116      1 RES       -0.847600
      62 HW1          4.9849     4.6609     7.8866 opls-117      1 RES        0.423800
      63 HW2          3.9268     3.9625     8.9158 opls-117      1 RES        0.423800
      64 OW           6.3974    17.4101    17.5715 opls-116      1 RES       -0.847600
      65 HW1          7.3015    17.0933    17.2847 opls-117      1 RES        0.423800
      66 HW2          5.6934    16.9032    17.0741 opls-117      1 RES        0.423800
      67 OW          23.4229     9.3914    15.5380 opls-116      1 RES       -0.847600
      68 HW1         23.0658    10.0698    16.1801 opls-117      1 RES        0.423800
      69 HW2         22.9846     8.5087    15.7078 opls-117      1 RES        0.423800
      70 OW          17.6694    13.9114     6.9077 opls-116      1 RES       -0.847600
      71 HW1         18.0073    14.1359     5.9937 opls-117      1 RES        0.423800
      72 HW2         18.4134    14.0021     7.5697 opls-117      1 RES        0.423800
      73 OW          25.2714     8.4957    17.3757 opls-116      1 RES       -0.847600
      74 HW1         24.3173     8.7848    17.4536 opls-117      1 RES        0.423800
      75 HW2         25.8413     9.0636    17.9695 opls-117      1 RES        0.423800
      76 OW          13.6593    16.7400    10.1940 opls-116      1 RES       -0.847600
      77 HW1         14.4397    16.1227    10.2938 opls-117      1 RES        0.423800
      78 HW2         13.9880    17.6787    10.0902 opls-117      1 RES        0.423800
      79 OW          16.0729    23.1163    27.6127 opls-116      1 RES       -0.847600
      80 HW1         15.0750    23.0542    27.5941 opls-117      1 RES        0.423800
      81 HW2         16.4658    22.2029    27.5065 opls-117      1 RES        0.423800
      82 OW          20.5778    23.0905     2.5884 opls-116      1 RES       -0.847600
      83 HW1         20.3590    22.6362     3.4520 opls-117      1 RES        0.423800
      84 HW2         21.3674    23.6902     2.7181 opls-117      1 RES        0.423800
      85 OW          29.8500    13.1718    23.7430 opls-116      1 RES       -0.847600
      86 HW1         29.9873    14.1616    23.7046 opls-117      1 RES        0.423800
      87 HW2         28.8804    12.9645    23.6136 opls-117      1 RES        0.423800
      88 OW          28.6189    11.5859    21.5555 opls-116      1 RES       -0.847600
      89 HW1         29.4731    11.0999    21.7401 opls-117      1 RES        0.423800
      90 HW2         28.8067    12.5627    21.4524 opls-117      1 RES        0.423800
      91 OW           4.2760    26.3091     3.0678 opls-116      1 RES       -0.847600
      92 HW1          4.6833    27.2218     3.0320 opls-117      1 RES        0.423800
      93 HW2          3.2871    26.3801     2.9376 opls-117      1 RES        0.423800
      94 OW           2.6309     7.5861    14.0356 opls-116      1 RES       -0.847600
      95 HW1          1.9938     6.8333    14.2008 opls-117      1 RES        0.423800
      96 HW2          3.5122     7.2180    13.7394 opls-117      1 RES        0.423800
      97 OW          23.0495    26.9651     2.2981 opls-116      1 RES       -0.847600
      98 HW1         23.7895    27.5679     2.0000 opls-117      1 RES        0.423800
      99 HW2         23.3642    26.4045     3.0641 opls-117      1 RES        0.423800
     100 OW           9.2508    11.2846    18.2910 opls-116      1 RES       -0.847600
     101 HW1          9.9709    11.3288    18.9836 opls-117      1 RES        0.423800
     102 HW2          8.3570    11.3466    18.7352 opls-117      1 RES        0.423800
     103 OW           6.9296    17.4099     5.2932 opls-116      1 RES       -0.847600
     104 HW1          6.2001    17.0011     4.7447 opls-117      1 RES        0.423800
     105 HW2          7.6325    17.7833     4.6877 opls-117      1 RES        0.423800
     106 OW           7.8465    29.4344    12.0156 opls-116      1 RES       -0.847600
     107 HW1          8.6532    29.1160    11.5177 opls-117      1 RES        0.423800
     108 HW2          7.2638    28.6534    12.2404 opls-117      1 RES        0.423800
     109 OW          14.3663    26.3301     8.3678 opls-116      1 RES       -0.847600
     110 HW1         15.3583    26.4111     8.4650 opls-117      1 RES        0.423800
     111 HW2         13.9189    26.7418     9.1617 opls-117      1 RES        0.423800
     112 OW          14.9873    25.5486     4.1088 opls-116      1 RES       -0.847600
     113 HW1         15.8203    26.0579     4.3249 opls-117      1 RES        0.423800
     114 HW2         15.2304    24.6361     3.7798 opls-117      1 RES        0.423800
     115 OW          26.2713    18.1959    27.8216 opls-116      1 RES       -0.847600
     116 HW1         27.1690    17.9316    27.4692 opls-117      1 RES        0.423800
     117 HW2         25.8392    17.4069    28.2584 opls-117      1 RES        0.423800
     118 OW           1.9934    18.2654    13.6063 opls-116      1 RES       -0.847600
     119 HW1          2.0609    18.7578    12.7386 opls-117      1 RES        0.423800
     120 HW2          2.5773    17.4541    13.5754 opls-117      1 RES        0.423800
     121 OW          19.0679     7.1740    21.2349 opls-116      1 RES       -0.847600
     122 HW1         19.2218     7.1563    22.2228 opls-117      1 RES        0.423800
     123 HW2         18.5134     7.9718    20.9982 opls-117      1 RES        0.423800
     124 OW          11.9903     3.5395    11.7439 opls-116      1 RES       -0.847600
     125 HW1         12.5592     2.7465    11.9620 opls-117      1 RES        0.423800
     126 HW2         12.5630     4.3579    11.6975 opls-117      1 RES        0.423800
     127 OW          17.3946    30.1164    16.6881 opls-116      1 RES       -0.847600
     128 HW1         18.0085    29.3283    16.7307 opls-117      1 RES        0.423800
     129 HW2         16.4471    29.7991    16.6486 opls-117      1 RES        0.423800
     130 OW          16.0805    16.0312    29.9688 opls-116      1 RES       -0.847600
     131 HW1         15.6849    15.1269    30.1293 opls-117      1 RES        0.423800
     132 HW2         15.7405    16.3946    29.1015 opls-117      1 RES        0.423800
     133 OW           8.3132    12.0948     6.5866 opls-116      1 RES       -0.847600
     134 HW1          7.4029    12.5079     6.6123 opls-117      1 RES        0.423800
     135 HW2          8.2265    11.1007     6.5210 opls-117      1 RES        0.423800
     136 OW          22.0222     4.6551    25.4031 opls-116      1 RES       -0.847600
     137 HW1         22.1857     4.8770    26.3644 opls-117      1 RES        0.423800
     138 HW2         22.6538     5.1759    24.8287 opls-117      1 RES        0.423800
     139 OW          22.5736     7.9875    21.4367 opls-116      1 RES       -0.847600
     140 HW1         21.7199     7.5111    21.6473 opls-117      1 RES        0.423800
     141 HW2         22.7656     8.6592    22.1522 opls-117      1 RES        0.423800
     142 OW          25.6839     3.6680    24.3433 opls-116      1 RES       -0.847600
     143 HW1         25.0419     3.7707    23.5835 opls-117      1 RES        0.423800
     144 HW2         25.3401     4.1655    25.1397 opls-117      1 RES        0.423800
     145 OW          22.5268     8.8495     6.9844 opls-116      1 RES       -0.847600
     146 HW1         23.3661     9.3815     7.0961 opls-117      1 RES        0.423800
     147 HW2         21.8066     9.2385     7.5589 opls-117      1 RES        0.423800
     148 OW          26.3297    25.7409     7.8722 opls-116      1 RES       -0.847600
     149 HW1         27.1478    26.2148     7.5464 opls-117      1 RES        0.423800
     150 HW2         25.6706    26.4106     8.2143 opls-117      1 RES        0.423800
     151 OW          17.1349    22.4965    21.8911 opls-116      1 RES       -0.847600
     152 HW1         16.3253    22.4155    21.3098 opls-117      1 RES        0.423800
     153 HW2         17.1501    21.7428    22.5483 opls-117      1 RES        0.423800
     154 OW          15.4027    16.2659    24.0560 opls-116      1 RES       -0.847600
     155 HW1         15.7258    17.0224    24.6245 opls-117      1 RES        0.423800
     156 HW2         15.5781    15.3993    24.5232 opls-117      1 RES        0.423800
     157 OW           9.0842    19.3797     9.2049 opls-116      1 RES       -0.847600
     158 HW1          8.9839    18.4861     9.6425 opls-117      1 RES        0.423800
     159 HW2          8.1929    19.6916     8.8758 opls-117      1 RES        0.423800
     160 OW          13.7932     6.0020     3.6431 opls-116      1 RES       -0.847600
     161 HW1         12.9301     6.3299     3.2591 opls-117      1 RES        0.423800
     162 HW2         13.6523     5.7293     4.5949 opls-117      1 RES        0.423800
     163 OW          29.9373     3.4410    26.8518 opls-116      1 RES       -0.847600
     164 HW1         28.9902     3.2624    27.1187 opls-117      1 RES        0.423800
     165 HW2         30.0755     4.4264    26.7530 opls-117      1 RES        0.423800
     166 OW          13.0025    21.5210    29.4098 opls-116      1 RES       -0.847600
     167 HW1         13.0719    21.8669    28.4740 opls-117      1 RES        0.423800
     168 HW2         13.4168    22.1781    30.0395 opls-117      1 RES        0.423800
     169 OW           3.6034    21.1663    24.2011 opls-116      1 RES       -0.847600
     170 HW1          4.2141    20.9589    24.9653 opls-117      1 RES        0.423800
     171 HW2          2.7559    20.6449    24.3007 opls-117      1 RES        0.423800
     172 OW           9.8110    12.2143    25.6912 opls-116      1 RES       -0.847600
     173 HW1         10.0439    12.3993    24.7365 opls-117      1 RES        0.423800
     174 HW2         10.5953    11.7980    26.1511 opls-117      1 RES        0.423800
     175 OW          19.2177    23.9064    24.7900 opls-116      1 RES       -0.847600
     176 HW1         19.0289    23.2323    24.0759 opls-117      1 RES        0.423800
     177 HW2         18.3584    24.1924    25.2140 opls-117      1 RES        0.423800
     178 OW           7.8736     3.1557    18.6594 opls-116      1 RES       -0.847600
     179 HW1          7.6234     2.4390    18.0085 opls-117      1 RES        0.423800
     180 HW2          7.2289     3.9162    18.5819 opls-117      1 RES        0.423800
     181 OW          28.1494    20.2008    15.6698 opls-116      1 RES       -0.847600
     182 HW1         27.1975    19.9060    15.7534 opls-117      1 RES        0.423800
     183 HW2         28.3359    20.4603    14.7222 opls-117      1 RES        0.423800
     184 OW           3.1472    29.2871    29.9963 opls-116      1 RES       -0.847600
     185 HW1          2.5262    30.0708    30.0102 opls-117      1 RES        0.423800
     186 HW2          4.0927    29.6102    30.0360 opls-117      1 RES        0.423800
     187 OW          13.1669    19.0549    18.8224 opls-116      1 RES       -0.847600
     188 HW1         13.2923    20.0434    18.7376 opls-117      1 RES        0.423800
     189 HW2         12.2086    18.8569    19.0286 opls-117      1 RES        0.423800
     190 OW          20.1042    27.8741    19.5393 opls-116      1 RES       -0.847600
     191 HW1         19.8117    27.0360    19.9999 opls-117      1 RES        0.423800
     192 HW2         19.4698    28.6148    19.7605 opls-117      1 RES        0.423800
     193 OW          28.2841    11.8533    15.9357 opls-116      1 RES       -0.847600
     194 HW1         29.0714    11.4758    15.4481 opls-117      1 RES        0.423800
     195 HW2         27.4460    11.6330    15.4366 opls-117      1 RES        0.423800
     196 OW          28.2834    28.9689     3.1422 opls-116      1 RES       -0.847600
     197 HW1         28.2521    28.9964     2.1431 opls-117      1 RES        0.423800
     198 HW2         27.4075    29.2793     3.5117 opls-117      1 RES        0.423800
     199 OW          19.5416    12.3363    27.2211 opls-116      1 RES       -0.847600
     200 HW1         19.2334    13.2829    27.3158 opls-117      1 RES        0.423800
     201 HW2         18.7475    11.7320    27.1567 opls-117      1 RES        0.423800
     202 OW          29.6846    15.1043     8.5924 opls-116      1 RES       -0.847600
     203 HW1         29.7719    15.4845     9.5132 opls-117      1 RES        0.423800
     204 HW2         30.0866    14.1889     8.5704 opls-117      1 RES        0.423800
     205 OW          10.1522    22.9785    16.2722 opls-116      1 RES       -0.847600
     206 HW1          9.3920    22.3359    16.1762 opls-117      1 RES        0.423800
     207 HW2         10.1361    23.3794    17.1882 opls-117      1 RES        0.423800
     208 OW          28.5555    15.9967     5.9958 opls-116      1 RES       -0.847600
     209 HW1         28.6187    15.1472     5.4719 opls-117      1 RES        0.423800
     210 HW2         28.3798    15.7832     6.9568 opls-117      1 RES        0.423800
     211 OW          24.2791    25.2797    26.5530 opls-116      1 RES       -0.847600
     212 HW1         25.0835    25.5033    27.1034 opls-117      1 RES        0.423800
     213 HW2         23.7414    24.5769    27.0188 opls-117      1 RES        0.423800
     214 OW          27.1282     8.0616    14.0861 opls-116      1 RES       -0.847600
     215 HW1         26.8277     9.0145    14.0439 opls-117      1 RES        0.423800
     216 HW2         27.9560     7.9976    14.6436 opls-117      1 RES        0.423800
     217 OW           9.5675    20.2372    15.5410 opls-116      1 RES       -0.847600
     218 HW1         10.5426    20.4426    15.6241 opls-117      1 RES        0.423800
     219 HW2          9.3782    19.3464    15.9541 opls-117      1 RES        0.423800
     220 OW          18.4181    24.3885    20.3218 opls-116      1 RES       -0.847600
     221 HW1         17.5660    23.8735    20.2293 opls-117      1 RES        0.423800
     222 HW2         18.3962    24.9198    21.1687 opls-117      1 RES        0.423800
     223 OW           2.5728    29.3372    27.8736 opls-116      1 RES       -0.847600
     224 HW1          1.9892    28.6181    28.2508 opls-117      1 RES        0.423800
     225 HW2          2.0026    30.0849    27.5333 opls-117      1 RES        0.423800
     226 OW          13.7556    24.1810    17.4370 opls-116      1 RES       -0.847600
     227 HW1         13.1038    24.6095    18.0628 opls-117      1 RES        0.423800
     228 HW2         13.9824    24.8206    16.7026 opls-117      1 RES        0.423800
     229 OW          24.3211    14.2697    25.9662 opls-116      1 RES       -0.847600
     230 HW1         23.6580    13.5261    25.8807 opls-117      1 RES        0.423800
     231 HW2         23.8659    15.0819    26.3310 opls-117      1 RES        0.423800
     232 OW          16.4560     5.8987    21.5723 opls-116      1 RES       -0.847600
     233 HW1         15.6807     5.9619    22.2007 opls-117      1 RES        0.423800
     234 HW2         17.3029     6.0927    22.0673 opls-117      1 RES        0.423800
     235 OW          21.0630     9.6549    27.1446 opls-116      1 RES       -0.847600
     236 HW1         21.3564     9.0667    27.8981 opls-117      1 RES        0.423800
     237 HW2         20.4148    10.3356    27.4860 opls-117      1 RES        0.423800
     238 OW          15.9574    25.7201    22.1980 opls-116      1 RES       -0.847600
     239 HW1         16.0962    26.6771    21.9431 opls-117      1 RES        0.423800
     240 HW2         16.2231    25.1302    21.4355 opls-117      1 RES        0.423800
     241 OW          12.2662    12.8159    18.5815 opls-116      1 RES       -0.847600
     242 HW1         12.1506    13.3651    19.4092 opls-117      1 RES        0.423800
     243 HW2         11.8819    13.3066    17.7995 opls-117      1 RES        0.423800
     244 OW          29.8857    14.0275    16.6059 opls-116      1 RES       -0.847600
     245 HW1         29.9857    15.0007    16.3988 opls-117      1 RES        0.423800
     246 HW2         28.9165    13.8085    16.7187 opls-117      1 RES        0.423800
     247 OW           3.3542    18.6590    25.1950 opls-116      1 RES       -0.847600
     248 HW1          4.3265    18.7621    24.9853 opls-117      1 RES        0.423800
     249 HW2          2.8525    18.4501    24.3555 opls-117      1 RES        0.423800
     250 OW          14.4385    25.6998    29.7314 opls-116      1 RES       -0.847600
     251 HW1         14.2812    24.7123    29.7248 opls-117      1 RES        0.423800
     252 HW2         13.5601    26.1771    29.7538 opls-117      1 RES        0.423800
     253 OW          21.1458     3.7966     9.5788 opls-116      1 RES       -0.847600
     254 HW1         20.4100     3.6414     8.9195 opls-117      1 RES        0.423800
     255 HW2         21.1601     4.7614     9.8414 opls-117      1 RES        0.423800
     256 OW          12.6716    19.6754    13.5152 opls-116      1 RES       -0.847600
     257 HW1         12.8960    19.5282    14.4785 opls-117      1 RES        0.423800
     258 HW2         12.5483    18.7921    13.0629 opls-117      1 RES        0.423800
     259 OW           9.3620    26.0209    18.8136 opls-116      1 RES       -0.847600
     260 HW1          9.9241    25.2039    18.6853 opls-117      1 RES        0.423800
     261 HW2          8.4007    25.7557    18.8889 opls-117      1 RES        0.423800
     262 OW          27.2082    28.3932    27.0594 opls-116      1 RES       -0.847600
     263 HW1         28.1326    28.0414    26.9119 opls-117      1 RES        0.423800
     264 HW2         27.2479    29.3804    27.2138 opls-117      1 RES        0.423800
     265 OW           4.0570     2.7198    13.5046 opls-116      1 RES       -0.847600
     266 HW1          3.9130     1.9762    12.8517 opls-117      1 RES        0.423800
     267 HW2          4.2360     3.5693    13.0083 opls-117      1 RES        0.423800
     268 OW           9.5146    27.6217    10.1510 opls-116      1 RES       -0.847600
     269 HW1          9.8606    27.3393    11.0458 opls-117      1 RES        0.423800
     270 HW2          9.5202    26.8385     9.5292 opls-117      1 RES        0.423800
     271 OW          21.2910    15.5362    18.5319 opls-116      1 RES       -0.847600
     272 HW1         21.5547    14.5754    18.6168 opls-117      1 RES        0.423800
     273 HW2         21.1471    15.7585    17.5676 opls-117      1 RES        0.423800
     274 OW          25.2109    11.8451    11.0409 opls-116      1 RES       -0.847600
     275 HW1         24.4226    11.4554    10.5648 opls-117      1 RES        0.423800
     276 HW2         25.0515    11.8171    12.0278 opls-117      1 RES        0.423800
     277 OW           5.3669     6.3877    28.8115 opls-116      1 RES       -0.847600
     278 HW1          5.9531     5.7983    28.2556 opls-117      1 RES        0.423800
     279 HW2          4.8624     7.0130    28.2161 opls-117      1 RES        0.423800
     280 OW           3.8907    15.7538    19.3495 opls-116      1 RES       -0.847600
     281 HW1          4.4738    15.2962    20.0208 opls-117      1 RES        0.423800
     282 HW2          4.4282    16.4322    18.8486 opls-117      1 RES        0.423800
     283 OW          14.3931     6.3252     8.9663 opls-116      1 RES       -0.847600
     284 HW1         13.9163     7.2007     9.0444 opls-117      1 RES        0.423800
     285 HW2         15.2017     6.4364     8.3885 opls-117      1 RES        0.423800
     286 OW          16.1398    27.9312    11.9323 opls-116      1 RES       -0.847600
     287 HW1         15.9349    28.9088    11.8830 opls-117      1 RES        0.423800
     288 HW2         16.9500    27.7324    11.3809 opls-117      1 RES        0.423800
     289 OW          11.5733    25.2798    16.2881 opls-116      1 RES       -0.847600
     290 HW1         11.8854    24.3303    16.2570 opls-117      1 RES        0.423800
     291 HW2         10.5759    25.3052    16.2212 opls-117      1 RES        0.423800
     292 OW          12.2228     3.0172    19.5440 opls-116      1 RES       -0.847600
     293 HW1         12.4154     3.9244    19.9179 opls-117      1 RES        0.423800
     294 HW2         13.0730     2.4942    19.4834 opls-117      1 RES        0.423800
     295 OW          14.8669    18.0446    22.8764 opls-116      1 RES       -0.847600
     296 HW1         15.3876    18.8881    22.7448 opls-117      1 RES        0.423800
     297 HW2         13.9010    18.2664    23.0096 opls-117      1 RES        0.423800
     298 OW           2.6992    15.3927    17.5366 opls-116      1 RES       -0.847600
     299 HW1          1.9993    14.9094    17.0107 opls-117      1 RES        0.423800
     300 HW2          3.6030    15.0445    17.2876 opls-117      1 RES        0.423800
     301 OW          25.4937     8.3830    21.8200 opls-116      1 RES       -0.847600
     302 HW1         24.7554     7.7416    22.0286 opls-117      1 RES        0.423800
     303 HW2         25.1612     9.3200    21.9269 opls-117      1 RES        0.423800
     304 OW          16.2072    19.3773    20.7627 opls-116      1 RES       -0.847600
     305 HW1         15.2218    19.4898    20.6351 opls-117      1 RES        0.423800
     306 HW2         16.6122    20.2545    21.0202 opls-117      1 RES        0.423800
     307 OW           6.6736     2.0749     7.4614 opls-116      1 RES       -0.847600
     308 HW1          6.4142     3.0406     7.4484 opls-117      1 RES        0.423800
     309 HW2          7.6705     1.9977     7.4739 opls-117      1 RES        0.423800
     310 OW          15.0049    23.1746    11.2914 opls-116      1 RES       -0.847600
     311 HW1         15.7245    22.5918    11.6689 opls-117      1 RES        0.423800
     312 HW2         15.2805    23.5010    10.3872 opls-117      1 RES        0.423800
     313 OW           8.4270    25.6152     6.9024 opls-116      1 RES       -0.847600
     314 HW1          9.0924    25.4844     7.6373 opls-117      1 RES        0.423800
     315 HW2          8.2742    24.7459     6.4324 opls-117      1 RES        0.423800
     316 OW           1.9965    26.2674    23.1466 opls-116      1 RES       -0.847600
     317 HW1          2.6549    25.6434    22.7257 opls-117      1 RES        0.423800
     318 HW2          2.4866    26.9970    23.6236 opls-117      1 RES        0.423800
     319 OW          20.1839    29.0748     8.1939 opls-116      1 RES       -0.847600
     320 HW1         20.1315    30.0731     8.1683 opls-117      1 RES        0.423800
     321 HW2         19.2599    28.6924     8.1931 opls-117      1 RES        0.423800
     322 OW           3.4972    23.3018    23.6442 opls-116      1 RES       -0.847600
     323 HW1          2.5376    23.5832    23.6509 opls-117      1 RES        0.423800
     324 HW2          4.0521    24.0195    23.2235 opls-117      1 RES        0.423800
     325 OW           3.5079     5.1803    20.1510 opls-116      1 RES       -0.847600
     326 HW1          2.6782     5.4440    20.6430 opls-117      1 RES        0.423800
     327 HW2          3.5885     5.7262    19.3170 opls-117      1 RES        0.423800
     328 OW           6.5772    23.1664     5.4565 opls-116      1 RES       -0.847600
     329 HW1          6.3713    24.1437     5.5073 opls-117      1 RES        0.423800
     330 HW2          5.7283    22.6530     5.3315 opls-117      1 RES        0.423800
     331 OW          26.5316     7.1696    20.3089 opls-116      1 RES       -0.847600
     332 HW1         26.6091     6.4361    19.6336 opls-117      1 RES        0.423800
     333 HW2         26.3847     8.0404    19.8398 opls-117      1 RES        0.423800
     334 OW           8.1204    11.6471     8.7400 opls-116      1 RES       -0.847600
     335 HW1          8.9445    12.2113     8.6910 opls-117      1 RES        0.423800
     336 HW2          8.3730    10.6817     8.6752 opls-117      1 RES        0.423800
     337 OW          14.3147    13.4064    30.1249 opls-116      1 RES       -0.847600
     338 HW1         13.4762    13.1549    29.6415 opls-117      1 RES        0.423800
     339 HW2         15.1066    13.0666    29.6175 opls-117      1 RES        0.423800
     340 OW           6.2683    24.9017     2.8339 opls-116      1 RES       -0.847600
     341 HW1          7.0075    24.7430     3.4885 opls-117      1 RES        0.423800
     342 HW2          6.6431    25.3051     1.9992 opls-117      1 RES        0.423800
     343 OW          11.8624    18.8543     9.9545 opls-116      1 RES       -0.847600
     344 HW1         11.7839    17.8929    10.2180 opls-117      1 RES        0.423800
     345 HW2         11.5353    19.4325    10.7020 opls-117      1 RES        0.423800
     346 OW          11.3993    11.2497     8.3395 opls-116      1 RES       -0.847600
     347 HW1         11.8655    10.8274     7.5622 opls-117      1 RES        0.423800
     348 HW2         10.5684    10.7347     8.5498 opls-117      1 RES        0.423800
     349 OW          17.9236    16.4954    28.8626 opls-116      1 RES       -0.847600
     350 HW1         18.0332    16.0980    27.9515 opls-117      1 RES        0.423800
     351 HW2         18.7170    16.2633    29.4252 opls-117      1 RES        0.423800
     352 OW          12.1921    10.6682    18.1190 opls-116      1 RES       -0.847600
     353 HW1         11.3868    10.2989    17.6553 opls-117      1 RES        0.423800
     354 HW2         12.7237     9.9179    18.5121 opls-117      1 RES        0.423800
     355 OW           2.2597    25.2515    12.2408 opls-116      1 RES       -0.847600
     356 HW1          3.1279    25.7366    12.3447 opls-117      1 RES        0.423800
     357 HW2          2.4376    24.2980    11.9976 opls-117      1 RES        0.423800
     358 OW           9.1049    23.2486    29.9925 opls-116      1 RES       -0.847600
     359 HW1          8.8387    23.8563    29.2442 opls-117      1 RES        0.423800
     360 HW2          8.9027    22.3021    29.7412 opls-117      1 RES        0.423800
     361 OW          23.5539    20.7544    29.9268 opls-116      1 RES       -0.847600
     362 HW1         23.8103    21.7181    30.0003 opls-117      1 RES        0.423800
     363 HW2         22.5703    20.6586    30.0801 opls-117      1 RES        0.423800
     364 OW           4.4186    11.9444    15.3186 opls-116      1 RES       -0.847600
     365 HW1          4.2618    10.9605    15.4041 opls-117      1 RES        0.423800
     366 HW2          3.5983    12.4388    15.6061 opls-117      1 RES        0.423800
     367 OW           5.4521    27.0817    29.1089 opls-116      1 RES       -0.847600
     368 HW1          5.3742    27.7781    29.8224 opls-117      1 RES        0.423800
     369 HW2          6.3006    26.5680    29.2358 opls-117      1 RES        0.423800
     370 OW          15.2735     6.0677    28.8439 opls-116      1 RES       -0.847600
     371 HW1         16.0765     6.5579    28.5048 opls-117      1 RES        0.423800
     372 HW2         14.9984     6.4489    29.7265 opls-117      1 RES        0.423800
     373 OW          18.3252     2.6109    23.8345 opls-116      1 RES       -0.847600
     374 HW1         18.4352     3.5172    23.4263 opls-117      1 RES        0.423800
     375 HW2         17.3907     2.2887    23.6837 opls-117      1 RES        0.423800
     376 OW          28.7257    12.8169    18.6727 opls-116      1 RES       -0.847600
     377 HW1         29.1774    12.1976    19.3149 opls-117      1 RES        0.423800
     378 HW2         28.4072    13.6293    19.1611 opls-117      1 RES        0.423800
     379 OW          21.2305    15.3550     7.0462 opls-116      1 RES       -0.847600
     380 HW1         20.2900    15.0155     7.0293 opls-117      1 RES        0.423800
     381 HW2         21.8186    14.7330     6.5292 opls-117      1 RES        0.423800
     382 OW          23.0344     2.9723     7.8810 opls-116      1 RES       -0.847600
     383 HW1         22.7998     2.0018     7.8247 opls-117      1 RES        0.423800
     384 HW2         22.2242     3.5232     7.6810 opls-117      1 RES        0.423800
     385 OW           2.2593    26.9000    25.9850 opls-116      1 RES       -0.847600
     386 HW1          1.9949    26.8465    26.9479 opls-117      1 RES        0.423800
     387 HW2          1.9934    27.7903    25.6153 opls-117      1 RES        0.423800
     388 OW          20.3961     4.7651    22.0432 opls-116      1 RES       -0.847600
     389 HW1         20.4954     5.4474    22.7676 opls-117      1 RES        0.423800
     390 HW2         19.7156     5.0787    21.3810 opls-117      1 RES        0.423800
     391 OW          12.6763    17.0566    17.2760 opls-116      1 RES       -0.847600
     392 HW1         13.2960    16.2734    17.2257 opls-117      1 RES        0.423800
     393 HW2         11.7859    16.8019    16.8987 opls-117      1 RES        0.423800
     394 OW           9.2000    22.7499    24.9402 opls-116      1 RES       -0.847600
     395 HW1          9.0587    23.3237    25.7469 opls-117      1 RES        0.423800
     396 HW2          8.4716    22.9221    24.2769 opls-117      1 RES        0.423800
     397 OW           8.3837     3.6098    12.1558 opls-116      1 RES       -0.847600
     398 HW1          9.1168     4.0200    11.6133 opls-117      1 RES        0.423800
     399 HW2          7.5261     4.0914    11.9755 opls-117      1 RES        0.423800
     400 OW          21.7285     8.5944    17.8286 opls-116      1 RES       -0.847600
     401 HW1         22.3157     7.7988    17.6795 opls-117      1 RES        0.423800
     402 HW2         22.2877     9.3722    18.1157 opls-117      1 RES        0.423800
     403 OW           6.5755    27.4730    18.5102 opls-116      1 RES       -0.847600
     404 HW1          7.2460    28.0657    18.0641 opls-117      1 RES        0.423800
     405 HW2          5.8264    28.0291    18.8703 opls-117      1 RES        0.423800
     406 OW          11.9078    26.6177    13.0104 opls-116      1 RES       -0.847600
     407 HW1         12.7647    26.9059    13.4377 opls-117      1 RES        0.423800
     408 HW2         11.5308    27.3742    12.4760 opls-117      1 RES        0.423800
     409 OW          26.5419    26.5697    24.5641 opls-116      1 RES       -0.847600
     410 HW1         27.2475    26.1281    24.0099 opls-117      1 RES        0.423800
     411 HW2         26.9696    27.0367    25.3379 opls-117      1 RES        0.423800
     412 OW           2.0253    13.8805    10.1358 opls-116      1 RES       -0.847600
     413 HW1          2.1215    13.4262    11.0215 opls-117      1 RES        0.423800
     414 HW2          1.9882    13.1928     9.4108 opls-117      1 RES        0.423800
     415 OW          11.9595    18.9318    16.3775 opls-116      1 RES       -0.847600
     416 HW1         12.6947    19.5371    16.6825 opls-117      1 RES        0.423800
     417 HW2         11.2290    18.9244    17.0604 opls-117      1 RES        0.423800
     418 OW           2.2621    13.5051    22.2365 opls-116      1 RES       -0.847600
     419 HW1          1.9812    12.6538    22.6797 opls-117      1 RES        0.423800
     420 HW2          2.8300    13.2950    21.4407 opls-117      1 RES        0.423800
     421 OW          24.6789     8.5350     5.4135 opls-116      1 RES       -0.847600
     422 HW1         25.4862     9.1216     5.3494 opls-117      1 RES        0.423800
     423 HW2         24.9306     7.5952     5.1821 opls-117      1 RES        0.423800
     424 OW          25.2056     3.7138    10.4494 opls-116      1 RES       -0.847600
     425 HW1         25.0220     3.8631    11.4210 opls-117      1 RES        0.423800
     426 HW2         25.6367     2.8200    10.3252 opls-117      1 RES        0.423800
     427 OW          12.7240     5.0482     9.6152 opls-116      1 RES       -0.847600
     428 HW1         11.9596     5.6625     9.8112 opls-117      1 RES        0.423800
     429 HW2         12.7704     4.8774     8.6310 opls-117      1 RES        0.423800
     430 OW          21.6045    11.3992    11.7957 opls-116      1 RES       -0.847600
     431 HW1         21.1243    10.5253    11.8707 opls-117      1 RES        0.423800
     432 HW2         22.5905    11.2359    11.7624 opls-117      1 RES        0.423800
     433 OW           6.1464    13.0568    13.6261 opls-116      1 RES       -0.847600
     434 HW1          6.8253    13.6836    14.0085 opls-117      1 RES        0.423800
     435 HW2          6.4989    12.6605    12.7784 opls-117      1 RES        0.423800
     436 OW          10.5043     2.0652     8.1480 opls-116      1 RES       -0.847600
     437 HW1         10.0432     2.9481     8.2373 opls-117      1 RES        0.423800
     438 HW2         10.9213     1.9972     7.2416 opls-117      1 RES        0.423800
     439 OW           6.6700    17.4665    25.9803 opls-116      1 RES       -0.847600
     440 HW1          6.0282    17.3926    25.2170 opls-117      1 RES        0.423800
     441 HW2          6.9499    16.5513    26.2703 opls-117      1 RES        0.423800
     442 OW          26.6860    10.5422    22.9369 opls-116      1 RES       -0.847600
     443 HW1         27.1866     9.6845    22.8198 opls-117      1 RES        0.423800
     444 HW2         27.3057    11.2448    23.2866 opls-117      1 RES        0.423800
     445 OW          28.7654    22.4880    15.5600 opls-116      1 RES       -0.847600
     446 HW1         28.4418    22.6555    14.6288 opls-117      1 RES        0.423800
     447 HW2         29.6888    22.1055    15.5284 opls-117      1 RES        0.423800
     448 OW          21.6468     8.9024    30.0723 opls-116      1 RES       -0.847600
     449 HW1         20.7644     8.4319    30.0719 opls-117      1 RES        0.423800
     450 HW2         21.4974     9.8911    30.0724 opls-117      1 RES        0.423800
     451 OW          19.8206    21.0497    17.1946 opls-116      1 RES       -0.847600
     452 HW1         19.6806    21.9662    17.5693 opls-117      1 RES        0.423800
     453 HW2         20.7998    20.8828    17.0791 opls-117      1 RES        0.423800
     454 OW           6.3604    21.9847    19.6013 opls-116      1 RES       -0.847600
     455 HW1          5.6188    21.5511    20.1131 opls-117      1 RES        0.423800
     456 HW2          6.5411    21.4615    18.7685 opls-117      1 RES        0.423800
     457 OW          16.9124    23.2284    17.7957 opls-116      1 RES       -0.847600
     458 HW1         16.6765    24.1034    18.2183 opls-117      1 RES        0.423800
     459 HW2         17.1642    22.5719    18.5068 opls-117      1 RES        0.423800
     460 OW          29.1209     4.3261     4.5233 opls-116      1 RES       -0.847600
     461 HW1         28.1386     4.5117     4.4989 opls-117      1 RES        0.423800
     462 HW2         29.5520     4.9034     5.2168 opls-117      1 RES        0.423800
     463 OW          16.0705     4.3634     7.7933 opls-116      1 RES       -0.847600
     464 HW1         15.4580     3.6263     8.0790 opls-117      1 RES        0.423800
     465 HW2         16.0641     4.4343     6.7958 opls-117      1 RES        0.423800
     466 OW          17.6358     9.9930     9.0915 opls-116      1 RES       -0.847600
     467 HW1         17.5065     9.1592     9.6282 opls-117      1 RES        0.423800
     468 HW2         16.7531    10.4437     8.9580 opls-117      1 RES        0.423800
     469 OW           2.0174    11.7975     2.4813 opls-116      1 RES       -0.847600
     470 HW1          2.1786    12.7823     2.4161 opls-117      1 RES        0.423800
     471 HW2          2.7607    11.3072     2.0264 opls-117      1 RES        0.423800
     472 OW          30.0596    13.5853     4.1669 opls-116      1 RES       -0.847600
     473 HW1         30.0312    13.4900     5.1619 opls-117      1 RES        0.423800
     474 HW2         29.5712    12.8215     3.7448 opls-117      1 RES        0.423800
     475 OW           6.9149    10.5667    27.1356 opls-116      1 RES       -0.847600
     476 HW1          6.6536     9.6701    27.4929 opls-117      1 RES        0.423800
     477 HW2          7.4384    11.0621    27.8288 opls-117      1 RES        0.423800
     478 OW          17.5282    18.5040     4.3092 opls-116      1 RES       -0.847600
     479 HW1         16.8208    18.9020     3.7252 opls-117      1 RES        0.423800
     480 HW2         18.3966    18.9726     4.1475 opls-117      1 RES        0.423800
     481 OW          20.7433    12.9902    25.3821 opls-116      1 RES       -0.847600
     482 HW1         21.6926    12.6757    25.3794 opls-117      1 RES        0.423800
     483 HW2         20.6951    13.9009    25.7924 opls-117      1 RES        0.423800
     484 OW          21.8152    25.0193    19.9531 opls-116      1 RES       -0.847600
     485 HW1         21.0028    24.6587    20.4112 opls-117      1 RES        0.423800
     486 HW2         21.7657    26.0177    19.9237 opls-117      1 RES        0.423800
     487 OW          27.4006    17.3169    29.8753 opls-116      1 RES       -0.847600
     488 HW1         28.3970    17.2327    29.8793 opls-117      1 RES        0.423800
     489 HW2         27.1474    18.2825    29.9348 opls-117      1 RES        0.423800
     490 OW          15.3528     7.6913    15.9939 opls-116      1 RES       -0.847600
     491 HW1         14.6563     6.9748    15.9568 opls-117      1 RES        0.423800
     492 HW2         15.9606     7.6066    15.2044 opls-117      1 RES        0.423800
     493 OW           9.3595    19.5234    22.2208 opls-116      1 RES       -0.847600
     494 HW1          9.0219    18.5825    22.1931 opls-117      1 RES        0.423800
     495 HW2         10.0010    19.6252    22.9811 opls-117      1 RES        0.423800
     496 OW          26.1331    28.4385    11.9843 opls-116      1 RES       -0.847600
     497 HW1         26.6148    28.5758    12.8498 opls-117      1 RES        0.423800
     498 HW2         26.4523    27.5933    11.5557 opls-117      1 RES        0.423800
     499 OW          27.5186    17.8800     8.1925 opls-116      1 RES       -0.847600
     500 HW1         26.7300    18.2471     7.6993 opls-117      1 RES        0.423800
     501 HW2         27.3197    16.9468     8.4919 opls-117      1 RES        0.423800
     502 OW           3.5732     5.9584    25.0456 opls-116      1 RES       -0.847600
     503 HW1          3.4712     5.3153    25.8045 opls-117      1 RES        0.423800
     504 HW2          2.6704     6.2685    24.7478 opls-117      1 RES        0.423800
     505 OW          19.0028     9.3167    15.8057 opls-116      1 RES       -0.847600
     506 HW1         18.0194     9.1352    15.8105 opls-117      1 RES        0.423800
     507 HW2         19.5011     8.4553    15.9042 opls-117      1 RES        0.423800
     508 OW          27.5738     2.0069    24.4135 opls-116      1 RES       -0.847600
     509 HW1         26.9907     2.0605    23.6028 opls-117      1 RES        0.423800
     510 HW2         27.6998     2.9227    24.7946 opls-117      1 RES        0.423800
     511 OW          16.5765    23.3030     6.3192 opls-116      1 RES       -0.847600
     512 HW1         16.0066    23.5802     5.5457 opls-117      1 RES        0.423800
     513 HW2         15.9941    23.1000     7.1064 opls-117      1 RES        0.423800
     514 OW          16.8354    24.7934     8.2303 opls-116      1 RES       -0.847600
     515 HW1         16.8406    24.0861     8.9372 opls-117      1 RES        0.423800
     516 HW2         17.7693    24.9508     7.9093 opls-117      1 RES        0.423800
     517 OW           3.4143     9.9962    22.1820 opls-116      1 RES       -0.847600
     518 HW1          3.5615    10.9843    22.1364 opls-117      1 RES        0.423800
     519 HW2          2.4373     9.8092    22.2846 opls-117      1 RES        0.423800
     520 OW          23.6572     5.0031     8.4521 opls-116      1 RES       -0.847600
     521 HW1         24.5190     4.4959     8.4410 opls-117      1 RES        0.423800
     522 HW2         23.8451     5.9769     8.5801 opls-117      1 RES        0.423800
     523 OW          29.7706    22.4693     7.1884 opls-116      1 RES       -0.847600
     524 HW1         29.9436    23.4488     7.0853 opls-117      1 RES        0.423800
     525 HW2         30.0698    22.1716     8.0950 opls-117      1 RES        0.423800
     526 OW           8.7631    22.1073    27.5550 opls-116      1 RES       -0.847600
     527 HW1          7.8793    22.5025    27.8055 opls-117      1 RES        0.423800
     528 HW2          8.6352    21.4472    26.8148 opls-117      1 RES        0.423800
     529 OW          22.2076    24.6583    28.8191 opls-116      1 RES       -0.847600
     530 HW1         21.2819    24.8806    29.1251 opls-117      1 RES        0.423800
     531 HW2         22.7560    25.4937    28.7820 opls-117      1 RES        0.423800
     532 OW          26.3815    27.3727     4.0320 opls-116      1 RES       -0.847600
     533 HW1         25.4113    27.5958     3.9377 opls-117      1 RES        0.423800
     534 HW2         26.6779    26.8340     3.2434 opls-117      1 RES        0.423800
     535 OW          29.7183     7.7592     7.9111 opls-116      1 RES       -0.847600
     536 HW1         30.0725     8.2329     8.7173 opls-117      1 RES        0.423800
     537 HW2         29.9434     6.7866     7.9702 opls-117      1 RES        0.423800
     538 OW          14.7105    25.7151     6.2842 opls-116      1 RES       -0.847600
     539 HW1         14.6965    24.8460     6.7786 opls-117      1 RES        0.423800
     540 HW2         13.7980    25.9080     5.9233 opls-117      1 RES        0.423800
     541 OW          20.5133    23.2656     8.1835 opls-116      1 RES       -0.847600
     542 HW1         20.7503    24.2370     8.1669 opls-117      1 RES        0.423800
     543 HW2         20.9702    22.8241     8.9557 opls-117      1 RES        0.423800
     544 OW           5.5522    13.5357    10.3757 opls-116      1 RES       -0.847600
     545 HW1          4.8495    14.1600    10.0344 opls-117      1 RES        0.423800
     546 HW2          5.1523    12.9255    11.0596 opls-117      1 RES        0.423800
     547 OW          22.7526    22.2224     7.4710 opls-116      1 RES       -0.847600
     548 HW1         22.6204    23.2102     7.5533 opls-117      1 RES        0.423800
     549 HW2         21.8816    21.7874     7.2427 opls-117      1 RES        0.423800
     550 OW           3.2376    25.3094    24.8184 opls-116      1 RES       -0.847600
     551 HW1          3.0682    24.8741    25.7025 opls-117      1 RES        0.423800
     552 HW2          3.9572    25.9967    24.9177 opls-117      1 RES        0.423800
     553 OW          22.7548    14.1777     2.5643 opls-116      1 RES       -0.847600
     554 HW1         22.3066    14.8639     1.9915 opls-117      1 RES        0.423800
     555 HW2         23.3317    13.5928     1.9941 opls-117      1 RES        0.423800
     556 OW          19.3426     8.8238    11.1905 opls-116      1 RES       -0.847600
     557 HW1         19.6582     9.2897    10.3638 opls-117      1 RES        0.423800
     558 HW2         18.8399     7.9976    10.9361 opls-117      1 RES        0.423800
     559 OW           6.2095    14.7049    29.8231 opls-116      1 RES       -0.847600
     560 HW1          6.6490    14.5641    28.9360 opls-117      1 RES        0.423800
     561 HW2          6.4147    15.6258    30.1544 opls-117      1 RES        0.423800
     562 OW          10.6772     8.6642    20.8226 opls-116      1 RES       -0.847600
     563 HW1         11.4719     8.0573    20.8313 opls-117      1 RES        0.423800
     564 HW2          9.8422     8.1190    20.7481 opls-117      1 RES        0.423800
     565 OW          10.3743    24.8214     5.7949 opls-116      1 RES       -0.847600
     566 HW1         11.3192    24.5236     5.6584 opls-117      1 RES        0.423800
     567 HW2         10.2775    25.7706     5.4957 opls-117      1 RES        0.423800
     568 OW          25.3920     4.9903     2.5692 opls-116      1 RES       -0.847600
     569 HW1         25.7686     5.5695     3.2922 opls-117      1 RES        0.423800
     570 HW2         26.0895     4.3416     2.2647 opls-117      1 RES        0.423800
     571 OW           3.2116    15.6226    10.7664 opls-116      1 RES       -0.847600
     572 HW1          3.2762    16.2232     9.9694 opls-117      1 RES        0.423800
     573 HW2          2.5119    15.9707    11.3903 opls-117      1 RES        0.423800
     574 OW           2.5597    23.2955     4.3706 opls-116      1 RES       -0.847600
     575 HW1          1.9961    22.5697     4.7649 opls-117      1 RES        0.423800
     576 HW2          3.5233    23.0325     4.4183 opls-117      1 RES        0.423800
     577 OW          14.0780    11.1660    22.7795 opls-116      1 RES       -0.847600
     578 HW1         14.5559    10.3245    22.5277 opls-117      1 RES        0.423800
     579 HW2         14.6474    11.9547    22.5476 opls-117      1 RES        0.423800
     580 OW           7.8166    13.6994    27.2863 opls-116      1 RES       -0.847600
     581 HW1          7.3563    14.4751    26.8546 opls-117      1 RES        0.423800
     582 HW2          8.5219    14.0355    27.9104 opls-117      1 RES        0.423800
     583 OW          10.8899     4.1134    21.7808 opls-116      1 RES       -0.847600
     584 HW1         11.3493     3.2279    21.7109 opls-117      1 RES        0.423800
     585 HW2         11.5683     4.8460    21.7260 opls-117      1 RES        0.423800
     586 OW          12.1155    10.4009    22.1490 opls-116      1 RES       -0.847600
     587 HW1         12.1321    10.1219    23.1092 opls-117      1 RES        0.423800
     588 HW2         12.6443     9.7504    21.6038 opls-117      1 RES        0.423800
     589 OW           9.6228    13.6482    15.7728 opls-116      1 RES       -0.847600
     590 HW1          9.9254    14.5673    16.0252 opls-117      1 RES        0.423800
     591 HW2         10.1872    12.9703    16.2439 opls-117      1 RES        0.423800
     592 OW          10.2543    27.1752    23.2621 opls-116      1 RES       -0.847600
     593 HW1         10.7813    28.0245    23.2316 opls-117      1 RES        0.423800
     594 HW2         10.8000    26.4303    22.8781 opls-117      1 RES        0.423800
     595 OW          17.5595    21.8170     4.6940 opls-116      1 RES       -0.847600
     596 HW1         17.3408    20.8442     4.6176 opls-117      1 RES        0.423800
     597 HW2         18.5173    21.9638     4.4469 opls-117      1 RES        0.423800
     598 OW           6.9221    29.0337    28.4799 opls-116      1 RES       -0.847600
     599 HW1          6.3243    29.6033    29.0440 opls-117      1 RES        0.423800
     600 HW2          6.3780    28.5700    27.7806 opls-117      1 RES        0.423800
     601 OW          16.4583    23.9558    23.4102 opls-116      1 RES       -0.847600
     602 HW1         16.5592    23.3949    24.2319 opls-117      1 RES        0.423800
     603 HW2         17.3542    24.3002    23.1296 opls-117      1 RES        0.423800
     604 OW          25.6255    12.0289    25.5337 opls-116      1 RES       -0.847600
     605 HW1         24.7600    11.7942    25.0911 opls-117      1 RES        0.423800
     606 HW2         25.9147    12.9395    25.2386 opls-117      1 RES        0.423800
     607 OW           5.9460     7.5281    18.5174 opls-116      1 RES       -0.847600
     608 HW1          5.5057     6.6351    18.6102 opls-117      1 RES        0.423800
     609 HW2          5.3188     8.2428    18.8270 opls-117      1 RES        0.423800
     610 OW          22.4664    28.5916    19.3503 opls-116      1 RES       -0.847600
     611 HW1         22.1611    27.8430    18.7618 opls-117      1 RES        0.423800
     612 HW2         23.1321    28.2456    20.0115 opls-117      1 RES        0.423800
     613 OW          22.3391    10.6615     9.6543 opls-116      1 RES       -0.847600
     614 HW1         22.8670    10.7080     8.8063 opls-117      1 RES        0.423800
     615 HW2         21.4378    10.2720     9.4650 opls-117      1 RES        0.423800
     616 OW          10.8827    23.9232    24.1664 opls-116      1 RES       -0.847600
     617 HW1         11.3001    24.3471    23.3626 opls-117      1 RES        0.423800
     618 HW2         11.5946    23.6951    24.8306 opls-117      1 RES        0.423800
     619 OW           5.7754    24.9074    11.5063 opls-116      1 RES       -0.847600
     620 HW1          5.8551    25.0881    12.4866 opls-117      1 RES        0.423800
     621 HW2          4.9334    25.3199    11.1587 opls-117      1 RES        0.423800
     622 OW          13.7459    12.5408     3.0586 opls-116      1 RES       -0.847600
     623 HW1         12.9823    13.1603     3.2403 opls-117      1 RES        0.423800
     624 HW2         13.4058    11.6027     2.9931 opls-117      1 RES        0.423800
     625 OW           5.4193    25.1231     7.3695 opls-116      1 RES       -0.847600
     626 HW1          4.9126    25.9726     7.5163 opls-117      1 RES        0.423800
     627 HW2          4.8702    24.3488     7.6841 opls-117      1 RES        0.423800
     628 OW          10.6861    20.4397     8.1329 opls-116      1 RES       -0.847600
     629 HW1          9.9347    21.0996     8.1291 opls-117      1 RES        0.423800
     630 HW2         11.3399    20.6831     8.8494 opls-117      1 RES        0.423800
     631 OW          24.4988    16.3229    15.0575 opls-116      1 RES       -0.847600
     632 HW1         25.0538    16.6342    14.2861 opls-117      1 RES        0.423800
     633 HW2         24.9999    15.6243    15.5682 opls-117      1 RES        0.423800
     634 OW          29.3668    15.5456    14.2106 opls-116      1 RES       -0.847600
     635 HW1         30.0717    14.8364    14.2069 opls-117      1 RES        0.423800
     636 HW2         29.1850    15.8398    13.2723 opls-117      1 RES        0.423800
     637 OW           8.0099    10.8436    24.3915 opls-116      1 RES       -0.847600
     638 HW1          7.3291    10.4108    24.9824 opls-117      1 RES        0.423800
     639 HW2          7.6767    10.8504    23.4486 opls-117      1 RES        0.423800
     640 OW          13.7535     6.1318    20.8892 opls-116      1 RES       -0.847600
     641 HW1         12.8399     6.3577    20.5510 opls-117      1 RES        0.423800
     642 HW2         13.6999     5.3295    21.4836 opls-117      1 RES        0.423800
     643 OW          23.5880    16.4156    17.0576 opls-116      1 RES       -0.847600
     644 HW1         22.8460    17.0830    17.1216 opls-117      1 RES        0.423800
     645 HW2         23.2092    15.5158    16.8413 opls-117      1 RES        0.423800
     646 OW           6.7998    12.5283    25.2453 opls-116      1 RES       -0.847600
     647 HW1          6.3909    12.4647    26.1557 opls-117      1 RES        0.423800
     648 HW2          6.8401    13.4872    24.9643 opls-117      1 RES        0.423800
     649 OW          19.1657    14.8854    13.8769 opls-116      1 RES       -0.847600
     650 HW1         18.6846    15.6630    14.2818 opls-117      1 RES        0.423800
     651 HW2         18.6615    14.0438    14.0707 opls-117      1 RES        0.423800
     652 OW          18.3658     2.8285     8.4848 opls-116      1 RES       -0.847600
     653 HW1         17.4422     2.6776     8.1325 opls-117      1 RES        0.423800
     654 HW2         18.6602     2.0255     9.0030 opls-117      1 RES        0.423800
     655 OW          20.4038    16.9557     5.0757 opls-116      1 RES       -0.847600
     656 HW1         20.8981    17.0027     4.2077 opls-117      1 RES        0.423800
     657 HW2         21.0271    17.1744     5.8265 opls-117      1 RES        0.423800
     658 OW           2.8328     8.7656    26.5720 opls-116      1 RES       -0.847600
     659 HW1          2.0087     8.5019    26.0707 opls-117      1 RES        0.423800
     660 HW2          3.0184     9.7365    26.4212 opls-117      1 RES        0.423800
     661 OW          18.3198    21.4472    25.3868 opls-116      1 RES       -0.847600
     662 HW1         18.1638    21.2134    24.4271 opls-117      1 RES        0.423800
     663 HW2         17.6702    22.1536    25.6676 opls-117      1 RES        0.423800
     664 OW           8.5140    30.0787    24.6908 opls-116      1 RES       -0.847600
     665 HW1          9.2315    29.3830    24.7265 opls-117      1 RES        0.423800
     666 HW2          7.6205    29.6334    24.6329 opls-117      1 RES        0.423800
     667 OW           7.1200     2.0211     5.2811 opls-116      1 RES       -0.847600
     668 HW1          6.7969     2.9672     5.2574 opls-117      1 RES        0.423800
     669 HW2          8.1192     2.0110     5.3215 opls-117      1 RES        0.423800
     670 OW           2.7357     7.2269    10.9598 opls-116      1 RES       -0.847600
     671 HW1          3.7303     7.3111    11.0204 opls-117      1 RES        0.423800
     672 HW2          2.3399     7.2835    11.8764 opls-117      1 RES        0.423800
     673 OW          18.1049     2.4731    16.7649 opls-116      1 RES       -0.847600
     674 HW1         17.2562     1.9493    16.8384 opls-117      1 RES        0.423800
     675 HW2         18.8221     2.0220    17.2959 opls-117      1 RES        0.423800
     676 OW          29.7367    24.3772     9.5659 opls-116      1 RES       -0.847600
     677 HW1         29.3040    25.1613     9.1209 opls-117      1 RES        0.423800
     678 HW2         29.1343    23.5818     9.4991 opls-117      1 RES        0.423800
     679 OW          18.7491    21.3851     1.9929 opls-116      1 RES       -0.847600
     680 HW1         18.1242    22.1658     1.9992 opls-117      1 RES        0.423800
     681 HW2         18.2413    20.5500     2.2045 opls-117      1 RES        0.423800
     682 OW           7.0213     9.2602     6.4072 opls-116      1 RES       -0.847600
     683 HW1          6.0967     9.2557     6.0261 opls-117      1 RES        0.423800
     684 HW2          6.9810     9.5019     7.3767 opls-117      1 RES        0.423800
     685 OW          10.6016     3.8216    15.3589 opls-116      1 RES       -0.847600
     686 HW1         11.2974     4.3119    14.8340 opls-117      1 RES        0.423800
     687 HW2         11.0292     3.0655    15.8545 opls-117      1 RES        0.423800
     688 OW          16.2124    20.1186    10.4750 opls-116      1 RES       -0.847600
     689 HW1         15.7176    19.2501    10.4468 opls-117      1 RES        0.423800
     690 HW2         17.1876    19.9424    10.6091 opls-117      1 RES        0.423800
     691 OW          13.3506    21.1422     2.4763 opls-116      1 RES       -0.847600
     692 HW1         14.1868    21.4135     1.9995 opls-117      1 RES        0.423800
     693 HW2         12.5572    21.5181     1.9976 opls-117      1 RES        0.423800
     694 OW          21.3073     7.6223     8.9642 opls-116      1 RES       -0.847600
     695 HW1         20.8632     6.7284     8.9032 opls-117      1 RES        0.423800
     696 HW2         22.2931     7.5142     8.8352 opls-117      1 RES        0.423800
     697 OW          30.0717     2.7237    24.2586 opls-116      1 RES       -0.847600
     698 HW1         30.0308     3.6374    24.6627 opls-117      1 RES        0.423800
     699 HW2         29.7174     2.0543    24.9115 opls-117      1 RES        0.423800
     700 OW          18.4036    12.2942    16.0210 opls-116      1 RES       -0.847600
     701 HW1         17.9792    11.4653    16.3854 opls-117      1 RES        0.423800
     702 HW2         18.9093    12.0711    15.1876 opls-117      1 RES        0.423800
     703 OW           6.0988     8.3199    29.5665 opls-116      1 RES       -0.847600
     704 HW1          5.2451     8.1914    30.0712 opls-117      1 RES        0.423800
     705 HW2          6.8049     7.7238    29.9486 opls-117      1 RES        0.423800
     706 OW           3.6916    20.4481     3.9895 opls-116      1 RES       -0.847600
     707 HW1          4.3815    21.1258     3.7350 opls-117      1 RES        0.423800
     708 HW2          3.2238    20.7452     4.8219 opls-117      1 RES        0.423800
     709 OW           6.1475    17.0243     9.6308 opls-116      1 RES       -0.847600
     710 HW1          5.7409    17.8050     9.1562 opls-117      1 RES        0.423800
     711 HW2          5.4619    16.3038     9.7352 opls-117      1 RES        0.423800
     712 OW          16.5769    19.1162    18.5954 opls-116      1 RES       -0.847600
     713 HW1         17.2250    19.0610    17.8358 opls-117      1 RES        0.423800
     714 HW2         16.2274    20.0503    18.6681 opls-117      1 RES        0.423800
     715 OW          10.2812    17.3519     5.8754 opls-116      1 RES       -0.847600
     716 HW1         11.1164    17.9009     5.9084 opls-117      1 RES        0.423800
     717 HW2         10.5119    16.4080     5.6391 opls-117      1 RES        0.423800
     718 OW           5.7775    26.5149    20.4654 opls-116      1 RES       -0.847600
     719 HW1          5.3945    26.0297    19.6793 opls-117      1 RES        0.423800
     720 HW2          6.6561    26.1067    20.7133 opls-117      1 RES        0.423800
     721 OW           8.5092     6.9852     6.3919 opls-116      1 RES       -0.847600
     722 HW1          7.5128     7.0571     6.3483 opls-117      1 RES        0.423800
     723 HW2          8.9092     7.9016     6.4068 opls-117      1 RES        0.423800
     724 OW          12.0437    15.6575    11.4565 opls-116      1 RES       -0.847600
     725 HW1         12.9405    15.2587    11.6480 opls-117      1 RES        0.423800
     726 HW2         11.3359    14.9626    11.5835 opls-117      1 RES        0.423800
     727 OW          30.0678    12.6090    12.8325 opls-116      1 RES       -0.847600
     728 HW1         29.9428    12.6742    13.8225 opls-117      1 RES        0.423800
     729 HW2         30.1031    13.5280    12.4398 opls-117      1 RES        0.423800
     730 OW           4.5544    11.2846     6.1675 opls-116      1 RES       -0.847600
     731 HW1          5.5475    11.3749     6.2428 opls-117      1 RES        0.423800
     732 HW2          4.1505    12.1822     5.9911 opls-117      1 RES        0.423800
     733 OW          12.8774    21.7911    15.5189 opls-116      1 RES       -0.847600
     734 HW1         11.9468    22.1118    15.3421 opls-117      1 RES        0.423800
     735 HW2         13.4374    22.5545    15.8410 opls-117      1 RES        0.423800
     736 OW          18.7960    15.9797     3.1052 opls-116      1 RES       -0.847600
     737 HW1         18.7952    16.8602     3.5793 opls-117      1 RES        0.423800
     738 HW2         19.7289    15.7523     2.8260 opls-117      1 RES        0.423800
     739 OW           3.2496     9.0942     3.4827 opls-116      1 RES       -0.847600
     740 HW1          2.6349     8.6798     2.8116 opls-117      1 RES        0.423800
     741 HW2          2.8792     9.9763     3.7739 opls-117      1 RES        0.423800
     742 OW          18.1714    26.3460    18.7068 opls-116      1 RES       -0.847600
     743 HW1         18.8479    25.6292    18.5379 opls-117      1 RES        0.423800
     744 HW2         17.3806    25.9540    19.1768 opls-117      1 RES        0.423800
     745 OW          11.4527     1.9897    13.7058 opls-116      1 RES       -0.847600
     746 HW1         10.7374     2.6569    13.4974 opls-117      1 RES        0.423800
     747 HW2         12.2345     2.4572    14.1183 opls-117      1 RES        0.423800
     748 OW          30.0140    20.6667    19.0114 opls-116      1 RES       -0.847600
     749 HW1         29.8716    19.7688    19.4280 opls-117      1 RES        0.423800
     750 HW2         29.3769    20.7856    18.2498 opls-117      1 RES        0.423800
     751 OW          11.1199     6.7545     5.1271 opls-116      1 RES       -0.847600
     752 HW1         10.9491     6.4566     6.0663 opls-117      1 RES        0.423800
     753 HW2         12.0218     7.1829     5.0721 opls-117      1 RES        0.423800
     754 OW           2.4208    16.7720    15.6608 opls-116      1 RES       -0.847600
     755 HW1          3.2307    17.0399    16.1825 opls-117      1 RES        0.423800
     756 HW2          2.6114    15.9280    15.1595 opls-117      1 RES        0.423800
     757 OW           5.0503    22.1333    13.0513 opls-116      1 RES       -0.847600
     758 HW1          5.2083    23.1099    13.1977 opls-117      1 RES        0.423800
     759 HW2          5.9209    21.6796    12.8611 opls-117      1 RES        0.423800
     760 OW          27.6397    21.8639    25.1800 opls-116      1 RES       -0.847600
     761 HW1         28.5538    21.5837    25.4732 opls-117      1 RES        0.423800
     762 HW2         27.3720    22.6933    25.6704 opls-117      1 RES        0.423800
     763 OW           4.0814    22.2246     8.9020 opls-116      1 RES       -0.847600
     764 HW1          3.3476    21.6900     9.3211 opls-117      1 RES        0.423800
     765 HW2          4.1559    23.1082     9.3644 opls-117      1 RES        0.423800
     766 OW          18.1712    17.0570    25.7709 opls-116      1 RES       -0.847600
     767 HW1         17.2680    17.1648    26.1864 opls-117      1 RES        0.423800
     768 HW2         18.5533    17.9580    25.5656 opls-117      1 RES        0.423800
     769 OW          10.5280     4.6310    25.9605 opls-116      1 RES       -0.847600
     770 HW1         10.8904     5.5628    25.9406 opls-117      1 RES        0.423800
     771 HW2          9.5287     4.6614    25.9357 opls-117      1 RES        0.423800
     772 OW          26.3908    26.1536    20.7356 opls-116      1 RES       -0.847600
     773 HW1         25.4498    26.1737    20.3978 opls-117      1 RES        0.423800
     774 HW2         26.3873    26.1967    21.7347 opls-117      1 RES        0.423800
     775 OW          22.1554    23.1709    14.1070 opls-116      1 RES       -0.847600
     776 HW1         22.1390    22.2147    14.3994 opls-117      1 RES        0.423800
     777 HW2         22.6462    23.2455    13.2389 opls-117      1 RES        0.423800
     778 OW          13.1605    24.8145    12.8849 opls-116      1 RES       -0.847600
     779 HW1         12.7447    24.2010    13.5563 opls-117      1 RES        0.423800
     780 HW2         13.2795    24.3291    12.0188 opls-117      1 RES        0.423800
     781 OW          23.7029    12.8859     7.0278 opls-116      1 RES       -0.847600
     782 HW1         23.6993    11.8936     7.1520 opls-117      1 RES        0.423800
     783 HW2         24.6101    13.2458     7.2454 opls-117      1 RES        0.423800
     784 OW           2.0483    23.4451    16.0609 opls-116      1 RES       -0.847600
     785 HW1          2.6654    24.2309    16.0194 opls-117      1 RES        0.423800
     786 HW2          2.0000    23.1085    17.0013 opls-117      1 RES        0.423800
     787 OW          18.7039    18.2216    27.7435 opls-116      1 RES       -0.847600
     788 HW1         19.5299    17.7096    27.9793 opls-117      1 RES        0.423800
     789 HW2         18.9592    19.1208    27.3881 opls-117      1 RES        0.423800
     790 OW          27.8092     9.5826    16.1615 opls-116      1 RES       -0.847600
     791 HW1         28.7618     9.2922    16.2530 opls-117      1 RES        0.423800
     792 HW2         27.5299    10.0742    16.9863 opls-117      1 RES        0.423800
     793 OW           5.0724    28.1655     7.4645 opls-116      1 RES       -0.847600
     794 HW1          5.9638    28.0650     7.0224 opls-117      1 RES        0.423800
     795 HW2          4.9829    29.0932     7.8269 opls-117      1 RES        0.423800
     796 OW           2.3792     2.2470    23.4056 opls-116      1 RES       -0.847600
     797 HW1          2.0009     3.1252    23.6980 opls-117      1 RES        0.423800
     798 HW2          2.0008     2.0017    22.5130 opls-117      1 RES        0.423800
     799 OW          11.8250    14.8552    21.6357 opls-116      1 RES       -0.847600
     800 HW1         12.4779    14.9618    20.8858 opls-117      1 RES        0.423800
     801 HW2         11.6032    15.7537    22.0147 opls-117      1 RES        0.423800
     802 OW          26.0885    29.1016     7.8400 opls-116      1 RES       -0.847600
     803 HW1         25.1780    28.7011     7.9428 opls-117      1 RES        0.423800
     804 HW2         26.7668    28.3712     7.7600 opls-117      1 RES        0.423800
     805 OW          18.4690    10.0321    21.7651 opls-116      1 RES       -0.847600
     806 HW1         19.2900     9.6519    22.1912 opls-117      1 RES        0.423800
     807 HW2         18.3255    10.9659    22.0926 opls-117      1 RES        0.423800
     808 OW          22.2767    13.7121     9.3077 opls-116      1 RES       -0.847600
     809 HW1         22.7081    12.8184     9.4310 opls-117      1 RES        0.423800
     810 HW2         22.6399    14.1467     8.4835 opls-117      1 RES        0.423800
     811 OW          22.9159    28.1760    23.9842 opls-116      1 RES       -0.847600
     812 HW1         23.0733    28.6876    24.8289 opls-117      1 RES        0.423800
     813 HW2         22.7699    28.8155    23.2295 opls-117      1 RES        0.423800
     814 OW          11.4676    25.9594    10.4540 opls-116      1 RES       -0.847600
     815 HW1         11.4119    25.3758    11.2642 opls-117      1 RES        0.423800
     816 HW2         12.1627    25.5999     9.8314 opls-117      1 RES        0.423800
     817 OW          13.0895     5.0452    18.1495 opls-116      1 RES       -0.847600
     818 HW1         13.8194     5.2083    18.8133 opls-117      1 RES        0.423800
     819 HW2         13.1247     4.0942    17.8424 opls-117      1 RES        0.423800
     820 OW          23.2628     4.0414    29.6930 opls-116      1 RES       -0.847600
     821 HW1         22.8985     4.8917    30.0728 opls-117      1 RES        0.423800
     822 HW2         22.7807     3.8218    28.8448 opls-117      1 RES        0.423800
     823 OW           8.5528     2.1070    15.6845 opls-116      1 RES       -0.847600
     824 HW1          9.2941     1.9999    15.0219 opls-117      1 RES        0.423800
     825 HW2          8.6356     2.9952    16.1365 opls-117      1 RES        0.423800
     826 OW          10.5971     4.0225    17.8376 opls-116      1 RES       -0.847600
     827 HW1          9.6114     4.1533    17.7310 opls-117      1 RES        0.423800
     828 HW2         11.0847     4.7161    17.3074 opls-117      1 RES        0.423800
     829 OW          22.2563     3.5863     3.5889 opls-116      1 RES       -0.847600
     830 HW1         22.0656     3.6725     2.6111 opls-117      1 RES        0.423800
     831 HW2         22.9259     4.2777     3.8602 opls-117      1 RES        0.423800
     832 OW          12.7052     6.9711    11.4148 opls-116      1 RES       -0.847600
     833 HW1         13.5324     6.5087    11.0956 opls-117      1 RES        0.423800
     834 HW2         12.3364     6.4854    12.2072 opls-117      1 RES        0.423800
     835 OW          22.6598    21.6754     9.7712 opls-116      1 RES       -0.847600
     836 HW1         22.3849    20.9062     9.1944 opls-117      1 RES        0.423800
     837 HW2         23.5704    21.9870     9.4996 opls-117      1 RES        0.423800
     838 OW          25.8057    23.9481    24.1913 opls-116      1 RES       -0.847600
     839 HW1         26.2227    24.4300    24.9619 opls-117      1 RES        0.423800
     840 HW2         26.0021    24.4414    23.3439 opls-117      1 RES        0.423800
     841 OW          28.1008    18.1308    23.8347 opls-116      1 RES       -0.847600
     842 HW1         27.1476    18.0974    24.1353 opls-117      1 RES        0.423800
     843 HW2         28.2976    17.3355    23.2614 opls-117      1 RES        0.423800
     844 OW          14.7011    15.6300    26.5262 opls-116      1 RES       -0.847600
     845 HW1         14.7976    14.6391    26.4322 opls-117      1 RES        0.423800
     846 HW2         15.5260    16.0067    26.9477 opls-117      1 RES        0.423800
     847 OW          18.0110    26.6549    13.4787 opls-116      1 RES       -0.847600
     848 HW1         17.2462    26.2489    12.9784 opls-117      1 RES        0.423800
     849 HW2         18.4965    27.2950    12.8832 opls-117      1 RES        0.423800
     850 OW           2.9644    26.9980    29.3734 opls-116      1 RES       -0.847600
     851 HW1          3.5413    26.5898    30.0809 opls-117      1 RES        0.423800
     852 HW2          2.0032    26.9080    29.6341 opls-117      1 RES        0.423800
     853 OW          28.5469    17.1494     1.9970 opls-116      1 RES       -0.847600
     854 HW1         28.2654    18.1090     1.9984 opls-117      1 RES        0.423800
     855 HW2         29.5455    17.0951     1.9964 opls-117      1 RES        0.423800
     856 OW          22.9886    27.9084     8.7301 opls-116      1 RES       -0.847600
     857 HW1         23.7097    27.2190     8.7986 opls-117      1 RES        0.423800
     858 HW2         23.0135    28.3276     7.8225 opls-117      1 RES        0.423800
     859 OW          18.5145    26.7981    23.9633 opls-116      1 RES       -0.847600
     860 HW1         17.6263    26.3926    23.7474 opls-117      1 RES        0.423800
     861 HW2         19.0192    26.1889    24.5750 opls-117      1 RES        0.423800
     862 OW          11.1956    29.8841    15.3379 opls-116      1 RES       -0.847600
     863 HW1         11.3776    29.5738    16.2710 opls-117      1 RES        0.423800
     864 HW2         12.0597    29.9792    14.8437 opls-117      1 RES        0.423800
     865 OW           6.6052     6.1785    24.0831 opls-116      1 RES       -0.847600
     866 HW1          7.0896     5.3605    23.7728 opls-117      1 RES        0.423800
     867 HW2          5.7280     5.9143    24.4843 opls-117      1 RES        0.423800
     868 OW          14.7749    28.9278    21.0537 opls-116      1 RES       -0.847600
     869 HW1         14.8265    29.3443    21.9614 opls-117      1 RES        0.423800
     870 HW2         15.6374    29.0758    20.5696 opls-117      1 RES        0.423800
     871 OW           3.2750     5.5392    28.6000 opls-116      1 RES       -0.847600
     872 HW1          2.3815     5.3451    29.0049 opls-117      1 RES        0.423800
     873 HW2          3.8864     4.7629    28.7536 opls-117      1 RES        0.423800
     874 OW          16.8128    18.1162     8.2192 opls-116      1 RES       -0.847600
     875 HW1         17.6991    18.5791     8.2345 opls-117      1 RES        0.423800
     876 HW2         16.0823    18.7915     8.3207 opls-117      1 RES        0.423800
     877 OW           6.2969     5.8168    13.2073 opls-116      1 RES       -0.847600
     878 HW1          5.5267     6.4466    13.3082 opls-117      1 RES        0.423800
     879 HW2          5.9762     4.8768    13.3238 opls-117      1 RES        0.423800
     880 OW           8.1065    16.9213    29.0181 opls-116      1 RES       -0.847600
     881 HW1          8.7201    17.5083    28.4899 opls-117      1 RES        0.423800
     882 HW2          7.3846    16.5711    28.4213 opls-117      1 RES        0.423800
     883 OW           3.1346    18.2126    10.8977 opls-116      1 RES       -0.847600
     884 HW1          2.1809    18.0194    10.6669 opls-117      1 RES        0.423800
     885 HW2          3.2824    19.2016    10.9035 opls-117      1 RES        0.423800
     886 OW           3.4385     6.4302     3.5764 opls-116      1 RES       -0.847600
     887 HW1          2.9835     7.0130     4.2497 opls-117      1 RES        0.423800
     888 HW2          2.8859     6.3884     2.7441 opls-117      1 RES        0.423800
     889 OW          30.0727    19.3901    25.6656 opls-116      1 RES       -0.847600
     890 HW1         29.4165    19.5189    24.9221 opls-117      1 RES        0.423800
     891 HW2         30.0100    20.1586    26.3024 opls-117      1 RES        0.423800
     892 OW          19.4052    17.5978     7.2518 opls-116      1 RES       -0.847600
     893 HW1         19.1161    16.7512     7.6988 opls-117      1 RES        0.423800
     894 HW2         20.0793    18.0639     7.8247 opls-117      1 RES        0.423800
     895 OW          17.4018     3.6010    20.6025 opls-116      1 RES       -0.847600
     896 HW1         18.1658     3.5235    21.2431 opls-117      1 RES        0.423800
     897 HW2         17.6640     3.2065    19.7218 opls-117      1 RES        0.423800
     898 OW           8.4083    29.8833    19.3738 opls-116      1 RES       -0.847600
     899 HW1          8.7326    28.9382    19.4128 opls-117      1 RES        0.423800
     900 HW2          8.0486    30.0749    18.4606 opls-117      1 RES        0.423800
     901 OW          27.9608     7.4620    17.9268 opls-116      1 RES       -0.847600
     902 HW1         27.9425     8.3788    18.3257 opls-117      1 RES        0.423800
     903 HW2         27.0416     7.2127    17.6221 opls-117      1 RES        0.423800
     904 OW           1.9977    17.4686     2.9426 opls-116      1 RES       -0.847600
     905 HW1          1.9998    16.6055     3.4477 opls-117      1 RES        0.423800
     906 HW2          2.1390    18.2273     3.5785 opls-117      1 RES        0.423800
     907 OW          26.3161    20.0074    22.7562 opls-116      1 RES       -0.847600
     908 HW1         27.2702    19.7740    22.5684 opls-117      1 RES        0.423800
     909 HW2         26.2329    20.9963    22.8792 opls-117      1 RES        0.423800
     910 OW           8.7379    15.0057     7.2166 opls-116      1 RES       -0.847600
     911 HW1          8.6784    14.0541     7.5181 opls-117      1 RES        0.423800
     912 HW2          7.8541    15.4539     7.3513 opls-117      1 RES        0.423800
     913 OW           5.9319     6.7619    16.4563 opls-116      1 RES       -0.847600
     914 HW1          6.3806     5.9102    16.7270 opls-117      1 RES        0.423800
     915 HW2          5.8129     6.7750    15.4635 opls-117      1 RES        0.423800
     916 OW          27.8454     3.0596    14.1669 opls-116      1 RES       -0.847600
     917 HW1         28.5590     3.1487    14.8617 opls-117      1 RES        0.423800
     918 HW2         26.9628     2.9104    14.6127 opls-117      1 RES        0.423800
     919 OW          20.0792    21.9629    15.1301 opls-116      1 RES       -0.847600
     920 HW1         19.7268    21.2408    14.5348 opls-117      1 RES        0.423800
     921 HW2         19.7920    22.8541    14.7791 opls-117      1 RES        0.423800
     922 OW          16.6696     6.0854    12.5197 opls-116      1 RES       -0.847600
     923 HW1         16.6242     6.4746    13.4397 opls-117      1 RES        0.423800
     924 HW2         17.2480     5.2698    12.5310 opls-117      1 RES        0.423800
     925 OW          17.6937     4.5499    15.4500 opls-116      1 RES       -0.847600
     926 HW1         16.9370     5.1371    15.1626 opls-117      1 RES        0.423800
     927 HW2         18.5284     5.0952    15.5265 opls-117      1 RES        0.423800
     928 OW          27.4696     4.4878    30.0099 opls-116      1 RES       -0.847600
     929 HW1         27.7535     5.4197    29.7841 opls-117      1 RES        0.423800
     930 HW2         27.8778     3.8480    29.3587 opls-117      1 RES        0.423800
     931 OW          21.1935    23.7071    26.9082 opls-116      1 RES       -0.847600
     932 HW1         20.4411    24.3420    27.0835 opls-117      1 RES        0.423800
     933 HW2         21.7726    24.0701    26.1782 opls-117      1 RES        0.423800
     934 OW          17.4575     6.1716     7.2300 opls-116      1 RES       -0.847600
     935 HW1         16.6657     6.5498     6.7505 opls-117      1 RES        0.423800
     936 HW2         18.2181     6.8189     7.1799 opls-117      1 RES        0.423800
     937 OW          18.3244     3.2841     5.1074 opls-116      1 RES       -0.847600
     938 HW1         18.6133     3.7312     4.2609 opls-117      1 RES        0.423800
     939 HW2         17.9265     3.9634     5.7241 opls-117      1 RES        0.423800
     940 OW          22.6970    26.8492    26.6683 opls-116      1 RES       -0.847600
     941 HW1         22.1083    27.3703    27.2862 opls-117      1 RES        0.423800
     942 HW2         23.5463    27.3535    26.5127 opls-117      1 RES        0.423800
     943 OW          17.9888    18.5665    12.9144 opls-116      1 RES       -0.847600
     944 HW1         17.2196    19.1537    12.6622 opls-117      1 RES        0.423800
     945 HW2         17.6443    17.7347    13.3497 opls-117      1 RES        0.423800
     946 OW          28.4637     6.2608    27.4056 opls-116      1 RES       -0.847600
     947 HW1         28.2710     5.3101    27.6487 opls-117      1 RES        0.423800
     948 HW2         28.9308     6.2907    26.5219 opls-117      1 RES        0.423800
     949 OW           8.4279    11.6504    16.2848 opls-116      1 RES       -0.847600
     950 HW1          7.5892    11.2903    15.8763 opls-117      1 RES        0.423800
     951 HW2          9.1826    11.0185    16.1085 opls-117      1 RES        0.423800
     952 OW          14.1703     7.4053    13.0006 opls-116      1 RES       -0.847600
     953 HW1         14.4805     6.8443    13.7681 opls-117      1 RES        0.423800
     954 HW2         14.9422     7.5964    12.3941 opls-117      1 RES        0.423800
     955 OW           1.9884     8.0031    19.5137 opls-116      1 RES       -0.847600
     956 HW1          2.8242     8.5243    19.3406 opls-117      1 RES        0.423800
     957 HW2          2.0246     7.6108    20.4328 opls-117      1 RES        0.423800
     958 OW           6.2590    26.3486    14.2438 opls-116      1 RES       -0.847600
     959 HW1          6.4328    26.9657    13.4763 opls-117      1 RES        0.423800
     960 HW2          6.9819    25.6590    14.2873 opls-117      1 RES        0.423800
     961 OW          25.1835     5.1335    30.0613 opls-116      1 RES       -0.847600
     962 HW1         25.6214     6.0320    30.0928 opls-117      1 RES        0.423800
     963 HW2         25.2696     4.7528    29.1406 opls-117      1 RES        0.423800
     964 OW           4.3266     2.4013    22.3948 opls-116      1 RES       -0.847600
     965 HW1          4.4917     2.8597    23.2681 opls-117      1 RES        0.423800
     966 HW2          3.8560     3.0276    21.7734 opls-117      1 RES        0.423800
     967 OW          14.7020     9.3061    10.7889 opls-116      1 RES       -0.847600
     968 HW1         15.5843     8.8555    10.6529 opls-117      1 RES        0.423800
     969 HW2         13.9681     8.6309    10.7146 opls-117      1 RES        0.423800
     970 OW           2.8700     2.9571    19.8026 opls-116      1 RES       -0.847600
     971 HW1          2.7744     2.0218    20.1433 opls-117      1 RES        0.423800
     972 HW2          2.0064     3.2532    19.3945 opls-117      1 RES        0.423800
     973 OW           2.0226     7.6898    28.6395 opls-116      1 RES       -0.847600
     974 HW1          2.9687     7.9342    28.8521 opls-117      1 RES        0.423800
     975 HW2          1.9994     7.1441    27.8019 opls-117      1 RES        0.423800
     976 OW          19.7727    22.6756    20.5782 opls-116      1 RES       -0.847600
     977 HW1         19.3034    22.1787    21.3083 opls-117      1 RES        0.423800
     978 HW2         19.3697    22.4311    19.6963 opls-117      1 RES        0.423800
     979 OW           8.2213    12.7759    20.4001 opls-116      1 RES       -0.847600
     980 HW1          7.8062    13.2748    19.6393 opls-117      1 RES        0.423800
     981 HW2          7.5282    12.2080    20.8439 opls-117      1 RES        0.423800
     982 OW           4.9736    10.5481     3.4204 opls-116      1 RES       -0.847600
     983 HW1          5.0046    10.1197     4.3235 opls-117      1 RES        0.423800
     984 HW2          5.7032    11.2283     3.3490 opls-117      1 RES        0.423800
     985 OW          20.2061    18.1390    18.2227 opls-116      1 RES       -0.847600
     986 HW1         21.1996    18.1558    18.1104 opls-117      1 RES        0.423800
     987 HW2         19.9298    17.2615    18.6146 opls-117      1 RES        0.423800
     988 OW           2.4348    19.9442    30.1059 opls-116      1 RES       -0.847600
     989 HW1          1.9956    19.1874    29.6217 opls-117      1 RES        0.423800
     990 HW2          1.9949    20.8046    29.8485 opls-117      1 RES        0.423800
     991 OW          15.5965     9.4524     2.8377 opls-116      1 RES       -0.847600
     992 HW1         15.2486     8.9273     3.6144 opls-117      1 RES        0.423800
     993 HW2         15.4922     8.9168     1.9998 opls-117      1 RES        0.423800
     994 OW          24.2796    22.4806    25.9395 opls-116      1 RES       -0.847600
     995 HW1         24.2847    21.4806    25.9405 opls-117      1 RES        0.423800
     996 HW2         25.2120    22.8188    26.0669 opls-117      1 RES        0.423800
     997 OW          13.6048    26.4318    11.4622 opls-116      1 RES       -0.847600
     998 HW1         14.4735    26.4956    11.9534 opls-117      1 RES        0.423800
     999 HW2         13.3102    27.3466    11.1857 opls-117      1 RES        0.423800
    1000 OW          28.8987    16.9410    26.5384 opls-116      1 RES       -0.847600
    1001 HW1         29.8273    17.3043    26.6147 opls-117      1 RES        0.423800
    1002 HW2         28.6369    16.8954    25.5743 opls-117      1 RES        0.423800
    1003 OW          21.2572    21.9107    24.4127 opls-116      1 RES       -0.847600
    1004 HW1         21.1794    22.9076    24.4073 opls-117      1 RES        0.423800
    1005 HW2         20.3434    21.5049    24.3956 opls-117      1 RES        0.423800
    1006 OW           5.4148    22.8198    17.2327 opls-116      1 RES       -0.847600
    1007 HW1          5.0206    21.9208    17.0417 opls-117      1 RES        0.423800
    1008 HW2          6.3586    22.8467    16.9030 opls-117      1 RES        0.423800
    1009 OW           3.8332     6.4435    17.1948 opls-116      1 RES       -0.847600
    1010 HW1          3.7521     6.6018    16.2108 opls-117      1 RES        0.423800
    1011 HW2          3.3835     7.1868    17.6901 opls-117      1 RES        0.423800
    1012 OW          29.5968    15.1104    21.1708 opls-116      1 RES       -0.847600
    1013 HW1         30.0703    14.2739    20.8948 opls-117      1 RES        0.423800
    1014 HW2         28.9549    14.9020    21.9087 opls-117      1 RES        0.423800
    1015 OW          19.8088     3.0934    19.2250 opls-116      1 RES       -0.847600
    1016 HW1         20.4702     2.7113    18.5795 opls-117      1 RES        0.423800
    1017 HW2         20.0010     2.7472    20.1432 opls-117      1 RES        0.423800
    1018 OW          27.6338    28.5802    22.2765 opls-116      1 RES       -0.847600
    1019 HW1         27.0634    27.9805    22.8378 opls-117      1 RES        0.423800
    1020 HW2         28.0436    29.2865    22.8537 opls-117      1 RES        0.423800
    1021 OW          24.2954     2.5173    16.1951 opls-116      1 RES       -0.847600
    1022 HW1         23.7715     1.9973    15.5205 opls-117      1 RES        0.423800
    1023 HW2         25.0973     1.9887    16.4738 opls-117      1 RES        0.423800
    1024 OW          19.9628     2.9206    26.8645 opls-116      1 RES       -0.847600
    1025 HW1         20.9591     2.8679    26.7967 opls-117      1 RES        0.423800
    1026 HW2         19.5862     1.9994    26.9627 opls-117      1 RES        0.423800
    1027 OW          18.9997     9.3242    29.1190 opls-116      1 RES       -0.847600
    1028 HW1         18.7261     9.3243    30.0808 opls-117      1 RES        0.423800
    1029 HW2         18.4700    10.0114    28.6217 opls-117      1 RES        0.423800
    1030 OW           9.3626    21.6750    21.7620 opls-116      1 RES       -0.847600
    1031 HW1          9.6974    22.6123    21.6657 opls-117      1 RES        0.423800
    1032 HW2          8.7031    21.6320    22.5124 opls-117      1 RES        0.423800
    1033 OW          27.7610    14.7465    11.0808 opls-116      1 RES       -0.847600
    1034 HW1         28.7235    14.8382    11.3361 opls-117      1 RES        0.423800
    1035 HW2         27.5704    15.3234    10.2866 opls-117      1 RES        0.423800
    1036 OW          22.9213     2.2752    10.8573 opls-116      1 RES       -0.847600
    1037 HW1         23.0956     3.1041    10.3257 opls-117      1 RES        0.423800
    1038 HW2         23.6736     2.1265    11.4991 opls-117      1 RES        0.423800
    1039 OW          19.7557    23.7142    10.5594 opls-116      1 RES       -0.847600
    1040 HW1         19.0868    23.0081    10.3271 opls-117      1 RES        0.423800
    1041 HW2         19.3226    24.6140    10.5059 opls-117      1 RES        0.423800
    1042 OW           2.9623    29.5953     9.2130 opls-116      1 RES       -0.847600
    1043 HW1          3.0319    28.6026     9.3118 opls-117      1 RES        0.423800
    1044 HW2          1.9998    29.8657     9.2346 opls-117      1 RES        0.423800
    1045 OW           8.0264    21.9474     3.4467 opls-116      1 RES       -0.847600
    1046 HW1          7.2324    22.5554     3.4474 opls-117      1 RES        0.423800
    1047 HW2          7.7178    20.9963     3.4623 opls-117      1 RES        0.423800
    1048 OW          25.1660    10.0828    27.8764 opls-116      1 RES       -0.847600
    1049 HW1         26.1390     9.8535    27.8500 opls-117      1 RES        0.423800
    1050 HW2         24.9970    10.8851    27.3040 opls-117      1 RES        0.423800
    1051 OW          18.6744    20.2884    19.5979 opls-116      1 RES       -0.847600
    1052 HW1         19.5671    19.8810    19.4053 opls-117      1 RES        0.423800
    1053 HW2         18.3200    20.7218    18.7693 opls-117      1 RES        0.423800
    1054 OW          14.2315    29.2405    18.1555 opls-116      1 RES       -0.847600
    1055 HW1         14.6904    30.0643    18.4883 opls-117      1 RES        0.423800
    1056 HW2         14.8976    28.6477    17.7028 opls-117      1 RES        0.423800
    1057 OW          10.0285    23.9946    10.2559 opls-116      1 RES       -0.847600
    1058 HW1          9.2720    23.4851    10.6659 opls-117      1 RES        0.423800
    1059 HW2          9.6686    24.6444     9.5863 opls-117      1 RES        0.423800
    1060 OW          13.0337    17.2998    30.0457 opls-116      1 RES       -0.847600
    1061 HW1         12.6727    18.2134    29.8586 opls-117      1 RES        0.423800
    1062 HW2         14.0309    17.3416    30.1071 opls-117      1 RES        0.423800
    1063 OW          13.1670    11.9221    20.9266 opls-116      1 RES       -0.847600
    1064 HW1         12.8493    11.3846    20.1455 opls-117      1 RES        0.423800
    1065 HW2         13.8253    12.6070    20.6142 opls-117      1 RES        0.423800
    1066 OW           4.3070     5.9246     5.7847 opls-116      1 RES       -0.847600
    1067 HW1          5.2223     6.0585     6.1646 opls-117      1 RES        0.423800
    1068 HW2          3.6568     5.7702     6.5286 opls-117      1 RES        0.423800
    1069 OW          30.1037    12.1699    10.2703 opls-116      1 RES       -0.847600
    1070 HW1         29.6110    11.4256    10.7211 opls-117      1 RES        0.423800
    1071 HW2         29.5835    13.0188    10.3640 opls-117      1 RES        0.423800
    1072 OW          23.0943    11.7079    23.6570 opls-116      1 RES       -0.847600
    1073 HW1         23.0664    10.7083    23.6550 opls-117      1 RES        0.423800
    1074 HW2         22.9688    12.0468    22.7246 opls-117      1 RES        0.423800
    1075 OW          13.4601    27.6376    22.2539 opls-116      1 RES       -0.847600
    1076 HW1         13.8989    27.6907    23.1509 opls-117      1 RES        0.423800
    1077 HW2         13.9289    26.9550    21.6934 opls-117      1 RES        0.423800
    1078 OW           9.5689    12.6143    10.7856 opls-116      1 RES       -0.847600
    1079 HW1          9.8514    11.6694    10.6205 opls-117      1 RES        0.423800
    1080 HW2         10.1319    13.2314    10.2359 opls-117      1 RES        0.423800
    1081 OW          26.1988    14.7536    20.3000 opls-116      1 RES       -0.847600
    1082 HW1         27.0737    14.8727    20.7694 opls-117      1 RES        0.423800
    1083 HW2         26.2921    14.0512    19.5944 opls-117      1 RES        0.423800
    1084 OW          15.0386    21.0512    22.8272 opls-116      1 RES       -0.847600
    1085 HW1         15.0100    22.0300    23.0303 opls-117      1 RES        0.423800
    1086 HW2         14.1125    20.6759    22.8646 opls-117      1 RES        0.423800
    1087 OW           9.8212     2.0051    20.7076 opls-116      1 RES       -0.847600
    1088 HW1         10.2681     1.9893    19.8132 opls-117      1 RES        0.423800
    1089 HW2          8.8290     2.0212    20.5843 opls-117      1 RES        0.423800
    1090 OW          21.1430    13.1300    13.2758 opls-116      1 RES       -0.847600
    1091 HW1         20.7487    13.8738    12.7361 opls-117      1 RES        0.423800
    1092 HW2         20.5870    12.9803    14.0934 opls-117      1 RES        0.423800
    1093 OW          15.5227    21.8976    29.4700 opls-116      1 RES       -0.847600
    1094 HW1         15.1157    21.1776    28.9078 opls-117      1 RES        0.423800
    1095 HW2         16.4836    21.6817    29.6438 opls-117      1 RES        0.423800
    1096 OW          15.2893    13.1621     4.6428 opls-116      1 RES       -0.847600
    1097 HW1         14.7634    13.9720     4.3830 opls-117      1 RES        0.423800
    1098 HW2         16.2609    13.3948     4.6844 opls-117      1 RES        0.423800
    1099 OW          29.4870    15.5756    18.4622 opls-116      1 RES       -0.847600
    1100 HW1         30.0081    16.1592    19.0850 opls-117      1 RES        0.423800
    1101 HW2         28.8702    16.1404    17.9138 opls-117      1 RES        0.423800
    1102 OW          20.7350     4.9157    14.6262 opls-116      1 RES       -0.847600
    1103 HW1         20.1054     5.4082    14.0253 opls-117      1 RES        0.423800
    1104 HW2         21.5182     5.5000    14.8391 opls-117      1 RES        0.423800
    1105 OW          12.7543     9.2552     8.9899 opls-116      1 RES       -0.847600
    1106 HW1         12.8704    10.1037     9.5062 opls-117      1 RES        0.423800
    1107 HW2         12.1413     8.6426     9.4890 opls-117      1 RES        0.423800
    1108 OW          26.0774     7.7550    26.1158 opls-116      1 RES       -0.847600
    1109 HW1         25.1420     8.0998    26.0372 opls-117      1 RES        0.423800
    1110 HW2         26.0910     6.7772    25.9068 opls-117      1 RES        0.423800
    1111 OW          18.9606    20.2457    11.8777 opls-116      1 RES       -0.847600
    1112 HW1         19.1121    20.8783    11.1182 opls-117      1 RES        0.423800
    1113 HW2         19.7158    19.5918    11.9226 opls-117      1 RES        0.423800
    1114 OW          11.4221    13.6773    13.3650 opls-116      1 RES       -0.847600
    1115 HW1         12.3959    13.7450    13.1479 opls-117      1 RES        0.423800
    1116 HW2         11.2968    13.7322    14.3556 opls-117      1 RES        0.423800
    1117 OW           7.7304    26.8023    11.1474 opls-116      1 RES       -0.847600
    1118 HW1          6.7421    26.8161    10.9950 opls-117      1 RES        0.423800
    1119 HW2          8.0229    25.8685    11.3535 opls-117      1 RES        0.423800
    1120 OW           3.6799     4.4121    11.0544 opls-116      1 RES       -0.847600
    1121 HW1          3.0847     5.0827    10.6116 opls-117      1 RES        0.423800
    1122 HW2          4.6148     4.7656    11.0858 opls-117      1 RES        0.423800
    1123 OW          23.2236     6.2168    10.7410 opls-116      1 RES       -0.847600
    1124 HW1         22.2490     6.4407    10.7544 opls-117      1 RES        0.423800
    1125 HW2         23.3407     5.2308    10.8597 opls-117      1 RES        0.423800
    1126 OW           2.4667     2.9488     2.8840 opls-116      1 RES       -0.847600
    1127 HW1          2.0000     2.9760     2.0000 opls-117      1 RES        0.423800
    1128 HW2          2.5467     2.0000     3.1896 opls-117      1 RES        0.423800
    1129 OW          12.0773    15.3909    27.0539 opls-116      1 RES       -0.847600
    1130 HW1         12.6811    16.1733    27.2064 opls-117      1 RES        0.423800
    1131 HW2         12.6176    14.5494    27.0463 opls-117      1 RES        0.423800
    1132 OW           8.6100    13.9480    30.1060 opls-116      1 RES       -0.847600
    1133 HW1          8.5015    14.9410    30.0595 opls-117      1 RES        0.423800
    1134 HW2          9.5827    13.7174    30.0803 opls-117      1 RES        0.423800
    1135 OW          10.9753    16.0208     7.7545 opls-116      1 RES       -0.847600
    1136 HW1         11.2818    16.9626     7.8931 opls-117      1 RES        0.423800
    1137 HW2         11.7699    15.4157     7.7047 opls-117      1 RES        0.423800
    1138 OW          28.6888    28.8284    12.1611 opls-116      1 RES       -0.847600
    1139 HW1         28.5053    29.8114    12.1493 opls-117      1 RES        0.423800
    1140 HW2         29.6767    28.6739    12.1682 opls-117      1 RES        0.423800
    1141 OW          18.7044    22.6695    29.5916 opls-116      1 RES       -0.847600
    1142 HW1         18.9438    23.5428    30.0160 opls-117      1 RES        0.423800
    1143 HW2         18.1438    22.8357    28.7804 opls-117      1 RES        0.423800
    1144 OW          26.6439    23.0917     8.3931 opls-116      1 RES       -0.847600
    1145 HW1         27.1973    22.7958     7.6145 opls-117      1 RES        0.423800
    1146 HW2         27.0663    23.8930     8.8168 opls-117      1 RES        0.423800
    1147 OW          18.9652    14.3464    21.7342 opls-116      1 RES       -0.847600
    1148 HW1         18.8160    13.3588    21.7841 opls-117      1 RES        0.423800
    1149 HW2         18.0961    14.8061    21.5518 opls-117      1 RES        0.423800
    1150 OW          21.8351     5.3822    12.6661 opls-116      1 RES       -0.847600
    1151 HW1         22.3754     4.5454    12.7550 opls-117      1 RES        0.423800
    1152 HW2         22.3916     6.1683    12.9352 opls-117      1 RES        0.423800
    1153 OW          22.9663     2.5152    23.8571 opls-116      1 RES       -0.847600
    1154 HW1         23.1850     2.9048    24.7518 opls-117      1 RES        0.423800
    1155 HW2         23.7494     1.9919    23.5210 opls-117      1 RES        0.423800
    1156 OW          22.0176     3.7350    19.7610 opls-116      1 RES       -0.847600
    1157 HW1         21.8599     3.7554    20.7482 opls-117      1 RES        0.423800
    1158 HW2         22.4564     2.8719    19.5112 opls-117      1 RES        0.423800
    1159 OW          14.9352    11.3830     7.9506 opls-116      1 RES       -0.847600
    1160 HW1         13.9410    11.3636     8.0567 opls-117      1 RES        0.423800
    1161 HW2         15.2391    12.3280     7.8293 opls-117      1 RES        0.423800
    1162 OW          14.5577    28.6864     9.9666 opls-116      1 RES       -0.847600
    1163 HW1         14.7506    29.6439    10.1811 opls-117      1 RES        0.423800
    1164 HW2         15.4184    28.1864     9.8708 opls-117      1 RES        0.423800
    1165 OW          11.4705    28.1127    17.9826 opls-116      1 RES       -0.847600
    1166 HW1         11.1183    27.2180    18.2574 opls-117      1 RES        0.423800
    1167 HW2         12.2603    28.3483    18.5489 opls-117      1 RES        0.423800
    1168 OW           7.4166    27.7148     9.0965 opls-116      1 RES       -0.847600
    1169 HW1          6.4735    28.0408     9.1623 opls-117      1 RES        0.423800
    1170 HW2          7.5161    27.1448     8.2809 opls-117      1 RES        0.423800
    1171 OW          12.4909    16.0970    24.8797 opls-116      1 RES       -0.847600
    1172 HW1         11.8153    16.2174    24.1524 opls-117      1 RES        0.423800
    1173 HW2         13.3155    15.6757    24.5022 opls-117      1 RES        0.423800
    1174 OW          16.2021    19.4547    27.6894 opls-116      1 RES       -0.847600
    1175 HW1         16.5232    18.5102    27.7592 opls-117      1 RES        0.423800
    1176 HW2         16.9871    20.0679    27.6015 opls-117      1 RES        0.423800
    1177 OW          26.5621    14.9206    16.9476 opls-116      1 RES       -0.847600
    1178 HW1         26.9100    14.4817    16.1191 opls-117      1 RES        0.423800
    1179 HW2         27.1871    14.7412    17.7073 opls-117      1 RES        0.423800
    1180 OW           6.6990    23.9263    29.7444 opls-116      1 RES       -0.847600
    1181 HW1          6.8431    22.9954    30.0800 opls-117      1 RES        0.423800
    1182 HW2          6.4782    23.8988    28.7695 opls-117      1 RES        0.423800
    1183 OW          19.9934    22.3413    12.6496 opls-116      1 RES       -0.847600
    1184 HW1         19.0269    22.5662    12.5261 opls-117      1 RES        0.423800
    1185 HW2         20.5374    23.1798    12.6176 opls-117      1 RES        0.423800
    1186 OW           3.2934    26.0568     9.7288 opls-116      1 RES       -0.847600
    1187 HW1          4.0625    26.6940     9.6785 opls-117      1 RES        0.423800
    1188 HW2          3.5279    25.2126     9.2468 opls-117      1 RES        0.423800
    1189 OW           4.0413    10.5896     8.2727 opls-116      1 RES       -0.847600
    1190 HW1          3.0424    10.6292     8.2441 opls-117      1 RES        0.423800
    1191 HW2          4.3478     9.6866     7.9716 opls-117      1 RES        0.423800
    1192 OW           7.5736    15.3141     5.1132 opls-116      1 RES       -0.847600
    1193 HW1          8.5228    15.6287     5.1180 opls-117      1 RES        0.423800
    1194 HW2          7.5311    14.3774     5.4607 opls-117      1 RES        0.423800
    1195 OW          20.1424    29.3830    15.5204 opls-116      1 RES       -0.847600
    1196 HW1         20.4038    28.5483    15.0356 opls-117      1 RES        0.423800
    1197 HW2         20.8603    30.0705    15.4115 opls-117      1 RES        0.423800
    1198 OW           4.1510    27.1666    22.1961 opls-116      1 RES       -0.847600
    1199 HW1          4.7077    26.3583    22.3876 opls-117      1 RES        0.423800
    1200 HW2          4.7253    27.9843    22.2373 opls-117      1 RES        0.423800
    1201 OW          10.9596    13.4145     6.3992 opls-116      1 RES       -0.847600
    1202 HW1         10.2593    13.9982     5.9883 opls-117      1 RES        0.423800
    1203 HW2         10.6705    13.1429     7.3172 opls-117      1 RES        0.423800
    1204 OW          22.1753    21.3541    26.5452 opls-116      1 RES       -0.847600
    1205 HW1         22.0764    20.5607    25.9445 opls-117      1 RES        0.423800
    1206 HW2         22.6646    21.0852    27.3748 opls-117      1 RES        0.423800
    1207 OW          17.4014    26.6629     9.2410 opls-116      1 RES       -0.847600
    1208 HW1         18.2808    26.3162     9.5673 opls-117      1 RES        0.423800
    1209 HW2         17.5016    27.6187     8.9647 opls-117      1 RES        0.423800
    1210 OW           7.5838    23.0359    15.0861 opls-116      1 RES       -0.847600
    1211 HW1          8.1510    23.8595    15.0863 opls-117      1 RES        0.423800
    1212 HW2          7.1643    22.9203    14.1858 opls-117      1 RES        0.423800
    1213 OW          23.6445    22.4606    20.1904 opls-116      1 RES       -0.847600
    1214 HW1         23.4620    21.6523    19.6307 opls-117      1 RES        0.423800
    1215 HW2         22.9172    22.5678    20.8682 opls-117      1 RES        0.423800
    1216 OW          23.3868     4.3206    18.1420 opls-116      1 RES       -0.847600
    1217 HW1         22.9153     5.2018    18.1083 opls-117      1 RES        0.423800
    1218 HW2         24.3749     4.4722    18.1694 opls-117      1 RES        0.423800
    1219 OW          21.4637    19.0831    29.0158 opls-116      1 RES       -0.847600
    1220 HW1         21.2585    18.8314    29.9616 opls-117      1 RES        0.423800
    1221 HW2         20.9625    19.9146    28.7760 opls-117      1 RES        0.423800
    1222 OW          18.9259    19.4806     6.2209 opls-116      1 RES       -0.847600
    1223 HW1         17.9260    19.4798     6.2404 opls-117      1 RES        0.423800
    1224 HW2         19.2485    20.2732     5.7035 opls-117      1 RES        0.423800
    1225 OW           7.4882    29.4877     6.3214 opls-116      1 RES       -0.847600
    1226 HW1          6.6700    30.0560     6.4088 opls-117      1 RES        0.423800
    1227 HW2          8.2817    30.0706     6.1466 opls-117      1 RES        0.423800
    1228 OW          18.4532    25.1828    27.5080 opls-116      1 RES       -0.847600
    1229 HW1         17.7997    24.4484    27.3247 opls-117      1 RES        0.423800
    1230 HW2         18.8467    25.0592    28.4189 opls-117      1 RES        0.423800
    1231 OW           4.7810    18.1166    22.7940 opls-116      1 RES       -0.847600
    1232 HW1          4.0442    17.4406    22.8087 opls-117      1 RES        0.423800
    1233 HW2          4.3892    19.0367    22.7997 opls-117      1 RES        0.423800
    1234 OW          14.9267     2.1464    20.6160 opls-116      1 RES       -0.847600
    1235 HW1         15.8889     1.9951    20.8426 opls-117      1 RES        0.423800
    1236 HW2         14.3646     1.9916    21.4284 opls-117      1 RES        0.423800
    1237 OW          18.8773    14.2801    24.0016 opls-116      1 RES       -0.847600
    1238 HW1         19.8525    14.2314    23.7859 opls-117      1 RES        0.423800
    1239 HW2         18.6033    13.4546    24.4949 opls-117      1 RES        0.423800
    1240 OW          14.7463     8.5338    20.5869 opls-116      1 RES       -0.847600
    1241 HW1         15.0998     7.8406    21.2151 opls-117      1 RES        0.423800
    1242 HW2         14.0238     8.1346    20.0224 opls-117      1 RES        0.423800
    1243 OW          21.9849     2.8201    16.5049 opls-116      1 RES       -0.847600
    1244 HW1         22.4205     2.4965    17.3449 opls-117      1 RES        0.423800
    1245 HW2         22.2163     3.7819    16.3586 opls-117      1 RES        0.423800
    1246 OW          18.8016     4.5406    25.4230 opls-116      1 RES       -0.847600
    1247 HW1         19.6863     4.2045    25.0999 opls-117      1 RES        0.423800
    1248 HW2         18.8662     4.7682    26.3946 opls-117      1 RES        0.423800
    1249 OW          20.5946     5.8192     6.6296 opls-116      1 RES       -0.847600
    1250 HW1         20.7081     5.3656     5.7457 opls-117      1 RES        0.423800
    1251 HW2         20.7499     5.1597     7.3651 opls-117      1 RES        0.423800
    1252 OW          24.1183     7.9858    12.8631 opls-116      1 RES       -0.847600
    1253 HW1         24.8984     8.5710    13.0843 opls-117      1 RES        0.423800
    1254 HW2         23.5231     7.9073    13.6629 opls-117      1 RES        0.423800
    1255 OW          28.4094    26.4659    15.4653 opls-116      1 RES       -0.847600
    1256 HW1         29.0126    27.2378    15.2646 opls-117      1 RES        0.423800
    1257 HW2         27.5012    26.8069    15.7081 opls-117      1 RES        0.423800
    1258 OW           7.4557     7.8995     3.2882 opls-116      1 RES       -0.847600
    1259 HW1          7.2603     7.1283     2.6824 opls-117      1 RES        0.423800
    1260 HW2          7.2868     7.6299     4.2363 opls-117      1 RES        0.423800
    1261 OW           7.4075    25.4354    23.4899 opls-116      1 RES       -0.847600
    1262 HW1          6.6697    25.4603    22.8154 opls-117      1 RES        0.423800
    1263 HW2          8.1872    25.9617    23.1506 opls-117      1 RES        0.423800
    1264 OW           6.3898    15.5441    12.3736 opls-116      1 RES       -0.847600
    1265 HW1          6.4316    16.2907    11.7098 opls-117      1 RES        0.423800
    1266 HW2          6.6184    14.6823    11.9208 opls-117      1 RES        0.423800
    1267 OW          18.4918    10.6089     7.0969 opls-116      1 RES       -0.847600
    1268 HW1         18.3370    11.4729     7.5760 opls-117      1 RES        0.423800
    1269 HW2         19.2129    10.0948     7.5614 opls-117      1 RES        0.423800
    1270 OW           6.4823    27.7542    24.7400 opls-116      1 RES       -0.847600
    1271 HW1          7.3158    27.2043    24.7937 opls-117      1 RES        0.423800
    1272 HW2          5.7314    27.1888    24.3986 opls-117      1 RES        0.423800
    1273 OW          21.0684    25.7281     9.7638 opls-116      1 RES       -0.847600
    1274 HW1         21.9148    26.2501     9.8692 opls-117      1 RES        0.423800
    1275 HW2         20.4643    26.1987     9.1207 opls-117      1 RES        0.423800
    1276 OW           4.5136    23.6878    29.7357 opls-116      1 RES       -0.847600
    1277 HW1          4.5325    24.6271    30.0783 opls-117      1 RES        0.423800
    1278 HW2          3.6955    23.2249    30.0769 opls-117      1 RES        0.423800
    1279 OW           2.1479    24.9817    20.4307 opls-116      1 RES       -0.847600
    1280 HW1          2.9096    24.8308    19.8005 opls-117      1 RES        0.423800
    1281 HW2          2.1262    24.2475    21.1092 opls-117      1 RES        0.423800
    1282 OW           4.7614     7.1595     8.5245 opls-116      1 RES       -0.847600
    1283 HW1          3.8734     7.6186     8.5521 opls-117      1 RES        0.423800
    1284 HW2          5.4636     7.8092     8.2333 opls-117      1 RES        0.423800
    1285 OW          13.3375    23.5589     2.2535 opls-116      1 RES       -0.847600
    1286 HW1         14.2951    23.7179     2.0132 opls-117      1 RES        0.423800
    1287 HW2         12.8884    24.4347     2.4304 opls-117      1 RES        0.423800
    1288 OW          22.3912    19.7036    21.2034 opls-116      1 RES       -0.847600
    1289 HW1         23.1132    19.1356    21.5984 opls-117      1 RES        0.423800
    1290 HW2         22.3746    20.5905    21.6651 opls-117      1 RES        0.423800
    1291 OW          10.5795     6.4080     8.2342 opls-116      1 RES       -0.847600
    1292 HW1          9.7597     6.9802     8.2144 opls-117      1 RES        0.423800
    1293 HW2         11.3915     6.9861     8.1543 opls-117      1 RES        0.423800
    1294 OW           2.8134    11.3614    10.7095 opls-116      1 RES       -0.847600
    1295 HW1          3.5142    11.7847    10.1354 opls-117      1 RES        0.423800
    1296 HW2          2.0227    11.1200    10.1469 opls-117      1 RES        0.423800
    1297 OW          13.1471    17.1393     5.5396 opls-116      1 RES       -0.847600
    1298 HW1         12.9398    16.7991     6.4568 opls-117      1 RES        0.423800
    1299 HW2         13.6077    16.4234     5.0148 opls-117      1 RES        0.423800
    1300 OW          26.8647    19.7052     2.8881 opls-116      1 RES       -0.847600
    1301 HW1         26.8674    20.6287     3.2719 opls-117      1 RES        0.423800
    1302 HW2         27.0903    19.0456     3.6051 opls-117      1 RES        0.423800
    1303 OW          12.5308    21.2659    12.0019 opls-116      1 RES       -0.847600
    1304 HW1         13.0034    22.1468    12.0273 opls-117      1 RES        0.423800
    1305 HW2         11.6618    21.3396    12.4911 opls-117      1 RES        0.423800
    1306 OW           4.3514     9.7564    10.2844 opls-116      1 RES       -0.847600
    1307 HW1          4.7591    10.1478    11.1094 opls-117      1 RES        0.423800
    1308 HW2          4.8470     8.9262    10.0293 opls-117      1 RES        0.423800
    1309 OW          17.6559    21.1437    13.4915 opls-116      1 RES       -0.847600
    1310 HW1         17.6112    20.6622    14.3668 opls-117      1 RES        0.423800
    1311 HW2         16.7289    21.3322    13.1671 opls-117      1 RES        0.423800
    1312 OW          25.4870     9.1328    24.1268 opls-116      1 RES       -0.847600
    1313 HW1         25.8995     8.2344    23.9764 opls-117      1 RES        0.423800
    1314 HW2         24.4963     9.0691    24.0065 opls-117      1 RES        0.423800
    1315 OW          11.3571    21.6005    24.2028 opls-116      1 RES       -0.847600
    1316 HW1         10.6322    21.8259    23.5519 opls-117      1 RES        0.423800
    1317 HW2         11.5852    20.6300    24.1248 opls-117      1 RES        0.423800
    1318 OW          23.8528     6.4619    26.7404 opls-116      1 RES       -0.847600
    1319 HW1         24.2556     5.6220    26.3765 opls-117      1 RES        0.423800
    1320 HW2         23.2989     6.8999    26.0323 opls-117      1 RES        0.423800
    1321 OW          21.1229     6.7553    25.7511 opls-116      1 RES       -0.847600
    1322 HW1         21.0770     7.7338    25.9523 opls-117      1 RES        0.423800
    1323 HW2         20.4782     6.2640    26.3366 opls-117      1 RES        0.423800
    1324 OW          22.2577    16.5750    10.8559 opls-116      1 RES       -0.847600
    1325 HW1         22.3227    16.0003    10.0402 opls-117      1 RES        0.423800
    1326 HW2         22.3927    17.5325    10.6007 opls-117      1 RES        0.423800
    1327 OW          13.2571     8.5265    14.6576 opls-116      1 RES       -0.847600
    1328 HW1         12.8810     8.1994    15.5245 opls-117      1 RES        0.423800
    1329 HW2         12.5412     8.9937    14.1388 opls-117      1 RES        0.423800
    1330 OW          28.2475    18.8364    17.6202 opls-116      1 RES       -0.847600
    1331 HW1         28.6586    18.2859    18.3468 opls-117      1 RES        0.423800
    1332 HW2         27.2953    18.5598    17.4906 opls-117      1 RES        0.423800
    1333 OW          20.6778    16.2261    15.1497 opls-116      1 RES       -0.847600
    1334 HW1         21.6194    16.2773    15.4826 opls-117      1 RES        0.423800
    1335 HW2         20.1786    17.0444    15.4347 opls-117      1 RES        0.423800
    1336 OW          10.6859    13.1837    27.8557 opls-116      1 RES       -0.847600
    1337 HW1         10.5480    13.8092    27.0877 opls-117      1 RES        0.423800
    1338 HW2         11.1900    13.6524    28.5810 opls-117      1 RES        0.423800
    1339 OW          24.7652    25.3815     6.2015 opls-116      1 RES       -0.847600
    1340 HW1         23.9014    24.8809     6.2588 opls-117      1 RES        0.423800
    1341 HW2         24.5800    26.3637     6.1729 opls-117      1 RES        0.423800
    1342 OW           4.7092    24.0659    15.2236 opls-116      1 RES       -0.847600
    1343 HW1          4.4658    23.0970    15.2675 opls-117      1 RES        0.423800
    1344 HW2          5.7036    24.1621    15.2674 opls-117      1 RES        0.423800
    1345 OW           8.6486     4.5395    20.2382 opls-116      1 RES       -0.847600
    1346 HW1          9.4458     4.0261    19.9205 opls-117      1 RES        0.423800
    1347 HW2          8.6874     4.6333    21.2330 opls-117      1 RES        0.423800
    1348 OW           8.7850    26.3207    29.6694 opls-116      1 RES       -0.847600
    1349 HW1          8.8874    27.2720    29.9601 opls-117      1 RES        0.423800
    1350 HW2          9.5106    25.7673    30.0783 opls-117      1 RES        0.423800
    1351 OW          10.4785    29.9001     7.4291 opls-116      1 RES       -0.847600
    1352 HW1         10.5878    29.1622     8.0951 opls-117      1 RES        0.423800
    1353 HW2         11.3525    30.0707     6.9742 opls-117      1 RES        0.423800
    1354 OW          27.5307    13.9992    29.3082 opls-116      1 RES       -0.847600
    1355 HW1         27.9036    13.1534    29.6896 opls-117      1 RES        0.423800
    1356 HW2         26.5825    14.1095    29.6060 opls-117      1 RES        0.423800
    1357 OW          27.2256    14.4614     2.9065 opls-116      1 RES       -0.847600
    1358 HW1         27.5536    15.4060     2.8965 opls-117      1 RES        0.423800
    1359 HW2         26.4142    14.3964     3.4874 opls-117      1 RES        0.423800
    1360 OW           2.1876    13.9299    30.0856 opls-116      1 RES       -0.847600
    1361 HW1          3.1701    14.1157    30.0749 opls-117      1 RES        0.423800
    1362 HW2          2.0078    13.0604    29.6255 opls-117      1 RES        0.423800
    1363 OW          12.0869     7.6316    25.0685 opls-116      1 RES       -0.847600
    1364 HW1         11.6065     7.6424    25.9454 opls-117      1 RES        0.423800
    1365 HW2         12.7925     8.3402    25.0662 opls-117      1 RES        0.423800
    1366 OW           7.0828     2.9566    14.2853 opls-116      1 RES       -0.847600
    1367 HW1          6.1913     2.5892    14.0204 opls-117      1 RES        0.423800
    1368 HW2          6.9540     3.7202    14.9180 opls-117      1 RES        0.423800
    1369 OW          22.1693     7.0624    23.8057 opls-116      1 RES       -0.847600
    1370 HW1         23.1216     7.3563    23.8878 opls-117      1 RES        0.423800
    1371 HW2         21.5713     7.8639    23.8128 opls-117      1 RES        0.423800
    1372 OW           5.4205    19.1446    27.1620 opls-116      1 RES       -0.847600
    1373 HW1          4.9141    19.9111    26.7672 opls-117      1 RES        0.423800
    1374 HW2          6.4002    19.3437    27.1364 opls-117      1 RES        0.423800
    1375 OW          26.8790    16.7261    19.6004 opls-116      1 RES       -0.847600
    1376 HW1         27.8642    16.7964    19.7569 opls-117      1 RES        0.423800
    1377 HW2         26.4818    17.6429    19.5594 opls-117      1 RES        0.423800
    1378 OW           3.0547     2.9114    27.1971 opls-116      1 RES       -0.847600
    1379 HW1          4.0521     2.8411    27.2120 opls-117      1 RES        0.423800
    1380 HW2          2.6705     2.1063    26.7452 opls-117      1 RES        0.423800
    1381 OW          26.7350    23.4834    20.8717 opls-116      1 RES       -0.847600
    1382 HW1         27.1547    24.1498    21.4879 opls-117      1 RES        0.423800
    1383 HW2         25.9034    23.8730    20.4758 opls-117      1 RES        0.423800
    1384 OW           7.7238     7.1180     9.1521 opls-116      1 RES       -0.847600
    1385 HW1          7.4709     6.4422     8.4597 opls-117      1 RES        0.423800
    1386 HW2          7.8790     8.0030     8.7130 opls-117      1 RES        0.423800
    1387 OW          19.1739    24.8574    16.5052 opls-116      1 RES       -0.847600
    1388 HW1         19.0602    23.8796    16.6808 opls-117      1 RES        0.423800
    1389 HW2         18.2751    25.2883    16.4243 opls-117      1 RES        0.423800
    1390 OW          10.8841     4.1177    30.0746 opls-116      1 RES       -0.847600
    1391 HW1         10.8960     3.1177    30.0744 opls-117      1 RES        0.423800
    1392 HW2         11.8229     4.4622    30.0747 opls-117      1 RES        0.423800
    1393 OW           9.9101    29.5244    13.5895 opls-116      1 RES       -0.847600
    1394 HW1         10.4811    29.9296    12.8756 opls-117      1 RES        0.423800
    1395 HW2          9.0875    30.0794    13.7134 opls-117      1 RES        0.423800
    1396 OW          15.6014     2.3434     6.2930 opls-116      1 RES       -0.847600
    1397 HW1         14.9205     2.0194     5.6362 opls-117      1 RES        0.423800
    1398 HW2         16.5134     2.2752     5.8886 opls-117      1 RES        0.423800
    1399 OW           8.6814    29.5141     9.1351 opls-116      1 RES       -0.847600
    1400 HW1          9.3299    30.0702     9.6548 opls-117      1 RES        0.423800
    1401 HW2          8.2760    30.0674     8.4074 opls-117      1 RES        0.423800
    1402 OW          29.7471    25.2361    21.3330 opls-116      1 RES       -0.847600
    1403 HW1         29.8005    24.4480    20.7198 opls-117      1 RES        0.423800
    1404 HW2         28.8116    25.5893    21.3411 opls-117      1 RES        0.423800
    1405 OW           9.4902     5.5449    13.1540 opls-116      1 RES       -0.847600
    1406 HW1          9.4497     4.7206    13.7186 opls-117      1 RES        0.423800
    1407 HW2          8.5650     5.8068    12.8795 opls-117      1 RES        0.423800
    1408 OW           3.9282     8.5089    24.6594 opls-116      1 RES       -0.847600
    1409 HW1          4.3225     9.4277    24.6769 opls-117      1 RES        0.423800
    1410 HW2          4.6631     7.8307    24.6640 opls-117      1 RES        0.423800
    1411 OW          17.0116    13.8961    28.8788 opls-116      1 RES       -0.847600
    1412 HW1         16.5576    14.4902    28.2148 opls-117      1 RES        0.423800
    1413 HW2         17.9845    14.1239    28.9194 opls-117      1 RES        0.423800
    1414 OW           3.8722    24.9171    17.7581 opls-116      1 RES       -0.847600
    1415 HW1          4.5420    24.4903    18.3656 opls-117      1 RES        0.423800
    1416 HW2          4.3448    25.3358    16.9826 opls-117      1 RES        0.423800
    1417 OW          12.9440    19.7667    20.8913 opls-116      1 RES       -0.847600
    1418 HW1         12.3766    20.0706    21.6566 opls-117      1 RES        0.423800
    1419 HW2         13.1669    18.7986    21.0055 opls-117      1 RES        0.423800
    1420 OW           5.8179    18.3418    29.5115 opls-116      1 RES       -0.847600
    1421 HW1          5.4192    17.5820    30.0251 opls-117      1 RES        0.423800
    1422 HW2          6.7658    18.4777    29.7995 opls-117      1 RES        0.423800
    1423 OW          19.2034    20.0840    30.0849 opls-116      1 RES       -0.847600
    1424 HW1         18.3218    20.5555    30.0651 opls-117      1 RES        0.423800
    1425 HW2         19.1027    19.1722    29.6867 opls-117      1 RES        0.423800
    1426 OW           6.4503    23.8862    24.7342 opls-116      1 RES       -0.847600
    1427 HW1          5.7124    24.5406    24.5690 opls-117      1 RES        0.423800
    1428 HW2          7.1258    24.2937    25.3487 opls-117      1 RES        0.423800
    1429 OW          18.5997     6.7555    29.6643 opls-116      1 RES       -0.847600
    1430 HW1         17.9204     7.4153    29.3428 opls-117      1 RES        0.423800
    1431 HW2         18.1521     5.8814    29.8528 opls-117      1 RES        0.423800
    1432 OW           4.6827    11.4046    27.0470 opls-116      1 RES       -0.847600
    1433 HW1          4.9166    10.8356    26.2587 opls-117      1 RES        0.423800
    1434 HW2          4.8760    10.9022    27.8898 opls-117      1 RES        0.423800
    1435 OW          16.2374    12.2896     2.3005 opls-116      1 RES       -0.847600
    1436 HW1         15.6641    13.0915     2.1330 opls-117      1 RES        0.423800
    1437 HW2         15.7517    11.6515     2.8980 opls-117      1 RES        0.423800
    1438 OW          23.9438     2.1689    27.0309 opls-116      1 RES       -0.847600
    1439 HW1         24.6247     2.4147    26.3409 opls-117      1 RES        0.423800
    1440 HW2         23.1515     2.7733    26.9474 opls-117      1 RES        0.423800
    1441 OW          17.5301    12.9372    19.0302 opls-116      1 RES       -0.847600
    1442 HW1         17.8157    13.4676    19.8284 opls-117      1 RES        0.423800
    1443 HW2         17.2911    13.5594    18.2847 opls-117      1 RES        0.423800
    1444 OW          16.6727    10.6840    11.2147 opls-116      1 RES       -0.847600
    1445 HW1         17.6515    10.5260    11.3454 opls-117      1 RES        0.423800
    1446 HW2         16.4661    11.6488    11.3778 opls-117      1 RES        0.423800
    1447 OW          17.3600    28.8008    18.7645 opls-116      1 RES       -0.847600
    1448 HW1         16.8259    29.6451    18.8094 opls-117      1 RES        0.423800
    1449 HW2         16.7413    28.0153    18.7513 opls-117      1 RES        0.423800
    1450 OW          16.7069    15.5200     8.0585 opls-116      1 RES       -0.847600
    1451 HW1         17.0424    16.1175     7.3302 opls-117      1 RES        0.423800
    1452 HW2         16.8813    15.9462     8.9461 opls-117      1 RES        0.423800
    1453 OW          29.2417     8.2218     2.6934 opls-116      1 RES       -0.847600
    1454 HW1         29.4476     7.7131     3.5294 opls-117      1 RES        0.423800
    1455 HW2         30.0451     8.2234     2.0979 opls-117      1 RES        0.423800
    1456 OW          10.0500    15.5626     9.9035 opls-116      1 RES       -0.847600
    1457 HW1          9.3745    15.1123     9.3196 opls-117      1 RES        0.423800
    1458 HW2         10.0741    16.5398     9.6926 opls-117      1 RES        0.423800
    1459 OW          16.7249     9.0379    12.6727 opls-116      1 RES       -0.847600
    1460 HW1         16.8422     8.8954    13.6555 opls-117      1 RES        0.423800
    1461 HW2         17.0389     8.2271    12.1786 opls-117      1 RES        0.423800
    1462 OW           5.5151    29.5160    25.6274 opls-116      1 RES       -0.847600
    1463 HW1          5.4710    30.0712    24.7968 opls-117      1 RES        0.423800
    1464 HW2          5.1433    30.0364    26.3962 opls-117      1 RES        0.423800
    1465 OW           9.6482    25.2856    21.1221 opls-116      1 RES       -0.847600
    1466 HW1          8.8174    25.8370    21.0466 opls-117      1 RES        0.423800
    1467 HW2          9.6397    24.7870    21.9889 opls-117      1 RES        0.423800
    1468 OW          23.8320     2.3380     2.6958 opls-116      1 RES       -0.847600
    1469 HW1         24.0735     3.0142     1.9998 opls-117      1 RES        0.423800
    1470 HW2         24.6644     1.9997     3.1348 opls-117      1 RES        0.423800
    1471 OW          22.4405    29.7452     2.7143 opls-116      1 RES       -0.847600
    1472 HW1         22.6129    28.9291     3.2659 opls-117      1 RES        0.423800
    1473 HW2         21.5096    30.0700     2.8815 opls-117      1 RES        0.423800
    1474 OW          13.9780     2.3147    16.4599 opls-116      1 RES       -0.847600
    1475 HW1         13.7534     2.0351    17.3933 opls-117      1 RES        0.423800
    1476 HW2         13.2017     2.8042    16.0627 opls-117      1 RES        0.423800
    1477 OW          19.0880    27.8585    28.1449 opls-116      1 RES       -0.847600
    1478 HW1         20.0192    27.5372    27.9726 opls-117      1 RES        0.423800
    1479 HW2         19.1112    28.6091    28.8052 opls-117      1 RES        0.423800
    1480 OW          23.9791    22.4704     5.6529 opls-116      1 RES       -0.847600
    1481 HW1         24.0868    21.5018     5.8772 opls-117      1 RES        0.423800
    1482 HW2         24.8453    22.9462     5.8057 opls-117      1 RES        0.423800
    1483 OW          20.6297    13.7871    28.9567 opls-116      1 RES       -0.847600
    1484 HW1         21.4228    13.8647    29.5609 opls-117      1 RES        0.423800
    1485 HW2         20.1403    14.6589    28.9355 opls-117      1 RES        0.423800
    1486 OW          15.9806    18.8382    15.6728 opls-116      1 RES       -0.847600
    1487 HW1         16.4034    18.8701    14.7672 opls-117      1 RES        0.423800
    1488 HW2         15.9830    19.7541    16.0742 opls-117      1 RES        0.423800
    1489 OW          30.0726     3.2729    18.9097 opls-116      1 RES       -0.847600
    1490 HW1         29.5513     3.3914    19.7549 opls-117      1 RES        0.423800
    1491 HW2         29.7500     2.4564    18.4309 opls-117      1 RES        0.423800
    1492 OW          16.6775     7.8162    23.2825 opls-116      1 RES       -0.847600
    1493 HW1         17.4707     8.2961    22.9076 opls-117      1 RES        0.423800
    1494 HW2         15.8672     8.3964    23.1997 opls-117      1 RES        0.423800
    1495 OW          12.2696     2.0166    25.8207 opls-116      1 RES       -0.847600
    1496 HW1         13.1658     2.4437    25.6999 opls-117      1 RES        0.423800
    1497 HW2         12.0484     1.9761    26.7951 opls-117      1 RES        0.423800
    1498 OW           9.3856    16.4159    17.0884 opls-116      1 RES       -0.847600
    1499 HW1          9.6787    17.3681    17.1752 opls-117      1 RES        0.423800
    1500 HW2          9.8003    15.8717    17.8177 opls-117      1 RES        0.423800
    1501 OW           6.3588    15.3006    18.4217 opls-116      1 RES       -0.847600
    1502 HW1          5.8583    14.4382    18.3449 opls-117      1 RES        0.423800
    1503 HW2          7.3352    15.1112    18.5257 opls-117      1 RES        0.423800
    1504 OW          20.7084     9.6809    20.0163 opls-116      1 RES       -0.847600
    1505 HW1         19.7192     9.5346    20.0264 opls-117      1 RES        0.423800
    1506 HW2         21.1750     8.7993    19.9458 opls-117      1 RES        0.423800
    1507 OW          26.8158    19.8471    25.4846 opls-116      1 RES       -0.847600
    1508 HW1         27.5640    19.6115    26.1049 opls-117      1 RES        0.423800
    1509 HW2         26.0181    20.1304    26.0170 opls-117      1 RES        0.423800
    1510 OW           2.9262    22.6705     6.7560 opls-116      1 RES       -0.847600
    1511 HW1          2.5472    23.5947     6.8019 opls-117      1 RES        0.423800
    1512 HW2          3.9059    22.7212     6.5620 opls-117      1 RES        0.423800
    1513 OW          24.7355    27.6939    28.6708 opls-116      1 RES       -0.847600
    1514 HW1         23.7631    27.9228    28.6264 opls-117      1 RES        0.423800
    1515 HW2         25.1873    27.9940    27.8306 opls-117      1 RES        0.423800
    1516 OW          27.1147    12.6559     4.6359 opls-116      1 RES       -0.847600
    1517 HW1         27.8650    13.1113     5.1151 opls-117      1 RES        0.423800
    1518 HW2         27.4060    12.4195     3.7089 opls-117      1 RES        0.423800
    1519 OW          16.7133    16.9342    22.4222 opls-116      1 RES       -0.847600
    1520 HW1         17.2993    16.3130    22.9425 opls-117      1 RES        0.423800
    1521 HW2         17.2137    17.7772    22.2246 opls-117      1 RES        0.423800
    1522 OW          21.8974    12.1199     3.2486 opls-116      1 RES       -0.847600
    1523 HW1         21.3514    11.4621     2.7298 opls-117      1 RES        0.423800
    1524 HW2         22.8574    11.8401     3.2356 opls-117      1 RES        0.423800
    1525 OW          25.8864     4.4687    21.6764 opls-116      1 RES       -0.847600
    1526 HW1         24.9001     4.5303    21.5235 opls-117      1 RES        0.423800
    1527 HW2         26.2997     5.3709    21.5535 opls-117      1 RES        0.423800
    1528 OW          13.3523    10.5057    29.2270 opls-116      1 RES       -0.847600
    1529 HW1         14.0626    10.9541    28.6844 opls-117      1 RES        0.423800
    1530 HW2         13.2097    11.0150    30.0756 opls-117      1 RES        0.423800
    1531 OW          24.9751    15.9459    23.6571 opls-116      1 RES       -0.847600
    1532 HW1         24.2329    15.9250    24.3269 opls-117      1 RES        0.423800
    1533 HW2         25.4034    16.8495    23.6621 opls-117      1 RES        0.423800
    1534 OW           9.2107    14.1947    12.2738 opls-116      1 RES       -0.847600
    1535 HW1          8.4914    13.5693    12.5763 opls-117      1 RES        0.423800
    1536 HW2          8.8007    14.9567    11.7726 opls-117      1 RES        0.423800
    1537 OW          11.0005     5.5833    19.6268 opls-116      1 RES       -0.847600
    1538 HW1         11.3741     6.1840    18.9200 opls-117      1 RES        0.423800
    1539 HW2         10.2675     6.0578    20.1141 opls-117      1 RES        0.423800
    1540 OW          19.2275    14.8489    18.8607 opls-116      1 RES       -0.847600
    1541 HW1         18.7822    15.4364    18.1851 opls-117      1 RES        0.423800
    1542 HW2         19.4488    13.9680    18.4422 opls-117      1 RES        0.423800
    1543 OW          16.8789     2.5657     3.1306 opls-116      1 RES       -0.847600
    1544 HW1         16.1171     2.0105     2.7968 opls-117      1 RES        0.423800
    1545 HW2         16.5271     3.2991     3.7123 opls-117      1 RES        0.423800
    1546 OW          27.5447     8.3015     4.4627 opls-116      1 RES       -0.847600
    1547 HW1         26.7618     8.1074     3.8715 opls-117      1 RES        0.423800
    1548 HW2         27.9273     9.1947     4.2264 opls-117      1 RES        0.423800
    1549 OW           8.9252     6.2205    22.8120 opls-116      1 RES       -0.847600
    1550 HW1          9.8269     5.8005    22.7092 opls-117      1 RES        0.423800
    1551 HW2          8.6849     6.7043    21.9704 opls-117      1 RES        0.423800
    1552 OW          19.7097    11.4737    10.1044 opls-116      1 RES       -0.847600
    1553 HW1         18.7680    11.7123     9.8671 opls-117      1 RES        0.423800
    1554 HW2         20.2108    12.3023    10.3540 opls-117      1 RES        0.423800
    1555 OW           3.4226     4.1147    17.3501 opls-116      1 RES       -0.847600
    1556 HW1          2.6108     4.5582    17.7299 opls-117      1 RES        0.423800
    1557 HW2          3.3835     3.1328    17.5356 opls-117      1 RES        0.423800
    1558 OW          24.5035    15.1136    18.8791 opls-116      1 RES       -0.847600
    1559 HW1         23.5549    15.4019    19.0097 opls-117      1 RES        0.423800
    1560 HW2         25.0576    15.9018    18.6116 opls-117      1 RES        0.423800
    1561 OW          12.2778    21.3958     4.7394 opls-116      1 RES       -0.847600
    1562 HW1         13.2703    21.4766     4.6472 opls-117      1 RES        0.423800
    1563 HW2         11.9902    20.4809     4.4561 opls-117      1 RES        0.423800
    1564 OW          11.9297     9.5553    11.6144 opls-116      1 RES       -0.847600
    1565 HW1         11.2610     9.9748    11.0005 opls-117      1 RES        0.423800
    1566 HW2         12.7255    10.1548    11.7001 opls-117      1 RES        0.423800
    1567 OW          11.3244    27.7154    14.9942 opls-116      1 RES       -0.847600
    1568 HW1         10.5186    27.5796    14.4177 opls-117      1 RES        0.423800
    1569 HW2         11.1218    27.4150    15.9263 opls-117      1 RES        0.423800
    1570 OW          29.4156     8.3222    27.2132 opls-116      1 RES       -0.847600
    1571 HW1         30.0698     9.0529    27.4086 opls-117      1 RES        0.423800
    1572 HW2         28.5498     8.5181    27.6736 opls-117      1 RES        0.423800
    1573 OW          15.5742     3.9904    16.7255 opls-116      1 RES       -0.847600
    1574 HW1         15.0545     4.7830    17.0444 opls-117      1 RES        0.423800
    1575 HW2         16.4652     3.9716    17.1792 opls-117      1 RES        0.423800
    1576 OW           5.0468    14.0550    15.2485 opls-116      1 RES       -0.847600
    1577 HW1          4.5647    14.9288    15.3131 opls-117      1 RES        0.423800
    1578 HW2          5.3277    13.7610    16.1621 opls-117      1 RES        0.423800
    1579 OW          11.8465    14.0389    24.4521 opls-116      1 RES       -0.847600
    1580 HW1         11.0703    14.3147    25.0191 opls-117      1 RES        0.423800
    1581 HW2         12.5729    13.6754    25.0354 opls-117      1 RES        0.423800
    1582 OW          10.9780    29.1998    26.0507 opls-116      1 RES       -0.847600
    1583 HW1         11.0085    28.2491    26.3590 opls-117      1 RES        0.423800
    1584 HW2         11.5152    29.2959    25.2127 opls-117      1 RES        0.423800
    1585 OW          29.5483    17.3792    11.0939 opls-116      1 RES       -0.847600
    1586 HW1         30.0665    16.5796    11.3976 opls-117      1 RES        0.423800
    1587 HW2         29.7842    17.5885    10.1450 opls-117      1 RES        0.423800
    1588 OW          23.0825    12.6188    18.4871 opls-116      1 RES       -0.847600
    1589 HW1         23.3798    11.8241    17.9580 opls-117      1 RES        0.423800
    1590 HW2         23.3482    13.4560    18.0089 opls-117      1 RES        0.423800
    1591 OW          28.4634    22.7777    18.7778 opls-116      1 RES       -0.847600
    1592 HW1         29.3683    23.1600    18.5911 opls-117      1 RES        0.423800
    1593 HW2         27.7713    23.4914    18.6700 opls-117      1 RES        0.423800
    1594 OW          17.8574     9.0231     4.0532 opls-116      1 RES       -0.847600
    1595 HW1         18.0671     8.0503     4.1515 opls-117      1 RES        0.423800
    1596 HW2         18.5731     9.5645     4.4945 opls-117      1 RES        0.423800
    1597 OW          23.6422    19.2093    26.7719 opls-116      1 RES       -0.847600
    1598 HW1         23.8885    19.3210    25.8092 opls-117      1 RES        0.423800
    1599 HW2         24.3319    19.6511    27.3458 opls-117      1 RES        0.423800
    1600 OW          29.1846     5.8484    15.7136 opls-116      1 RES       -0.847600
    1601 HW1         30.0701     5.4683    15.4465 opls-117      1 RES        0.423800
    1602 HW2         29.2979     6.8079    15.9717 opls-117      1 RES        0.423800
    1603 OW           8.2154     5.3707    15.6408 opls-116      1 RES       -0.847600
    1604 HW1          7.6966     5.7906    14.8961 opls-117      1 RES        0.423800
    1605 HW2          8.8703     6.0326    16.0053 opls-117      1 RES        0.423800
    1606 OW           3.7094    20.6404    28.4568 opls-116      1 RES       -0.847600
    1607 HW1          2.9444    20.2496    27.9449 opls-117      1 RES        0.423800
    1608 HW2          4.2490    19.9035    28.8640 opls-117      1 RES        0.423800
    1609 OW          18.3910    30.0193    11.6961 opls-116      1 RES       -0.847600
    1610 HW1         18.6845    29.0705    11.5798 opls-117      1 RES        0.423800
    1611 HW2         17.7186    30.0720    12.4344 opls-117      1 RES        0.423800
    1612 OW           5.7697     2.3535    16.1698 opls-116      1 RES       -0.847600
    1613 HW1          5.9367     3.1304    16.7770 opls-117      1 RES        0.423800
    1614 HW2          4.8024     2.1028    16.2078 opls-117      1 RES        0.423800
    1615 OW          25.2227    16.3125     8.6912 opls-116      1 RES       -0.847600
    1616 HW1         25.2088    17.2528     9.0314 opls-117      1 RES        0.423800
    1617 HW2         24.2944    15.9409     8.7006 opls-117      1 RES        0.423800
    1618 OW           9.7499     9.5896    23.6342 opls-116      1 RES       -0.847600
    1619 HW1         10.0198    10.5486    23.5472 opls-117      1 RES        0.423800
    1620 HW2         10.2220     9.0462    22.9400 opls-117      1 RES        0.423800
    1621 OW          11.2965    11.3804     2.4089 opls-116      1 RES       -0.847600
    1622 HW1         10.4958    10.9426     1.9999 opls-117      1 RES        0.423800
    1623 HW2         11.0243    12.2452     2.8309 opls-117      1 RES        0.423800
    1624 OW          16.9262     3.6741    26.6934 opls-116      1 RES       -0.847600
    1625 HW1         16.1047     3.1426    26.8999 opls-117      1 RES        0.423800
    1626 HW2         16.6756     4.6307    26.5446 opls-117      1 RES        0.423800
    1627 OW          11.8313    10.2213    27.4937 opls-116      1 RES       -0.847600
    1628 HW1         11.9060     9.7480    26.6160 opls-117      1 RES        0.423800
    1629 HW2         12.2567    11.1236    27.4231 opls-117      1 RES        0.423800
    1630 OW          11.6302    29.2034    10.0351 opls-116      1 RES       -0.847600
    1631 HW1         11.6792    28.2136     9.9008 opls-117      1 RES        0.423800
    1632 HW2         12.5522    29.5682    10.1648 opls-117      1 RES        0.423800
    1633 OW          29.9817     9.0412    13.9501 opls-116      1 RES       -0.847600
    1634 HW1         29.2649     9.7085    14.1523 opls-117      1 RES        0.423800
    1635 HW2         30.1083     8.4389    14.7382 opls-117      1 RES        0.423800
    1636 OW          14.1593    27.4952    19.5003 opls-116      1 RES       -0.847600
    1637 HW1         15.0320    27.1072    19.7965 opls-117      1 RES        0.423800
    1638 HW2         13.4476    26.7947    19.5542 opls-117      1 RES        0.423800
    1639 OW          27.1087    16.3602    12.4257 opls-116      1 RES       -0.847600
    1640 HW1         27.7124    17.1462    12.2918 opls-117      1 RES        0.423800
    1641 HW2         27.0158    16.1742    13.4039 opls-117      1 RES        0.423800
    1642 OW          10.6656     9.2142    15.8531 opls-116      1 RES       -0.847600
    1643 HW1         10.0545     8.8401    15.1555 opls-117      1 RES        0.423800
    1644 HW2         10.9264     8.4896    16.4911 opls-117      1 RES        0.423800
    1645 OW           9.9571     2.5671    26.4566 opls-116      1 RES       -0.847600
    1646 HW1          9.9001     1.9881    27.2699 opls-117      1 RES        0.423800
    1647 HW2         10.0663     1.9927    25.6454 opls-117      1 RES        0.423800
    1648 OW           6.2795    12.2041    17.3894 opls-116      1 RES       -0.847600
    1649 HW1          6.3913    11.2783    17.7506 opls-117      1 RES        0.423800
    1650 HW2          7.0790    12.7545    17.6299 opls-117      1 RES        0.423800
    1651 OW           7.2817    25.1321     9.1399 opls-116      1 RES       -0.847600
    1652 HW1          6.3454    25.4189     9.3428 opls-117      1 RES        0.423800
    1653 HW2          7.4963    24.3041     9.6578 opls-117      1 RES        0.423800
    1654 OW          20.4891    25.7921     2.0001 opls-116      1 RES       -0.847600
    1655 HW1         21.1366    25.8773     2.7573 opls-117      1 RES        0.423800
    1656 HW2         19.6279    25.4132     2.3389 opls-117      1 RES        0.423800
    1657 OW          29.8347    16.9983     4.5126 opls-116      1 RES       -0.847600
    1658 HW1         29.0363    17.4543     4.1195 opls-117      1 RES        0.423800
    1659 HW2         30.0862    17.4470     5.3701 opls-117      1 RES        0.423800
    1660 OW           8.5335     2.7332    30.0347 opls-116      1 RES       -0.847600
    1661 HW1          7.6005     2.3752    30.0726 opls-117      1 RES        0.423800
    1662 HW2          9.0118     2.3349    29.2521 opls-117      1 RES        0.423800
    1663 OW           5.2805    19.0117    18.5803 opls-116      1 RES       -0.847600
    1664 HW1          4.9555    19.9373    18.7745 opls-117      1 RES        0.423800
    1665 HW2          4.5629    18.4984    18.1096 opls-117      1 RES        0.423800
    1666 OW           4.8797     3.9006     3.1782 opls-116      1 RES       -0.847600
    1667 HW1          4.5977     2.9748     3.4299 opls-117      1 RES        0.423800
    1668 HW2          4.3235     4.2217     2.4117 opls-117      1 RES        0.423800
    1669 OW          28.9609     4.0709    22.6156 opls-116      1 RES       -0.847600
    1670 HW1         28.6518     3.1200    22.6259 opls-117      1 RES        0.423800
    1671 HW2         28.1784     4.6741    22.4610 opls-117      1 RES        0.423800
    1672 OW          22.9518    20.6300    17.7515 opls-116      1 RES       -0.847600
    1673 HW1         22.9150    20.3734    16.7857 opls-117      1 RES        0.423800
    1674 HW2         22.4045    19.9877    18.2882 opls-117      1 RES        0.423800
    1675 OW          22.2908    11.4618    20.7160 opls-116      1 RES       -0.847600
    1676 HW1         22.3167    10.5916    21.2082 opls-117      1 RES        0.423800
    1677 HW2         23.2237    11.7521    20.5029 opls-117      1 RES        0.423800
    1678 OW          27.9837    13.9584    13.5777 opls-116      1 RES       -0.847600
    1679 HW1         27.9646    13.2525    12.8697 opls-117      1 RES        0.423800
    1680 HW2         28.0206    13.5260    14.4786 opls-117      1 RES        0.423800
    1681 OW           2.0004    10.9025    15.0156 opls-116      1 RES       -0.847600
    1682 HW1          2.1485    10.8335    16.0021 opls-117      1 RES        0.423800
    1683 HW2          2.4150    10.1146    14.5604 opls-117      1 RES        0.423800
    1684 OW          18.4342    10.7370    24.7238 opls-116      1 RES       -0.847600
    1685 HW1         18.1202    10.0410    24.0780 opls-117      1 RES        0.423800
    1686 HW2         17.7141    10.9193    25.3934 opls-117      1 RES        0.423800
    1687 OW          10.3507    23.2570     8.0214 opls-116      1 RES       -0.847600
    1688 HW1         10.8153    23.0075     7.1717 opls-117      1 RES        0.423800
    1689 HW2          9.3656    23.3127     7.8587 opls-117      1 RES        0.423800
    1690 OW          20.5750     2.1693     3.6641 opls-116      1 RES       -0.847600
    1691 HW1         19.9868     1.9998     4.4548 opls-117      1 RES        0.423800
    1692 HW2         20.0612     2.6707     2.9679 opls-117      1 RES        0.423800
    1693 OW          13.6628    29.6345     4.7872 opls-116      1 RES       -0.847600
    1694 HW1         13.3343    30.0721     3.9502 opls-117      1 RES        0.423800
    1695 HW2         14.0648    28.7466     4.5635 opls-117      1 RES        0.423800
    1696 OW           8.4843    19.6326    28.9837 opls-116      1 RES       -0.847600
    1697 HW1          9.1768    19.5913    29.7040 opls-117      1 RES        0.423800
    1698 HW2          8.9335    19.6587    28.0907 opls-117      1 RES        0.423800
    1699 OW          25.3432    10.6607     7.9366 opls-116      1 RES       -0.847600
    1700 HW1         26.0400    11.2763     7.5685 opls-117      1 RES        0.423800
    1701 HW2         25.7816     9.9586     8.4977 opls-117      1 RES        0.423800
    1702 OW          14.3296    28.9288    15.0927 opls-116      1 RES       -0.847600
    1703 HW1         13.9921    28.5504    14.2307 opls-117      1 RES        0.423800
    1704 HW2         14.2464    29.9252    15.0745 opls-117      1 RES        0.423800
    1705 OW          21.1153     5.4631     3.4658 opls-116      1 RES       -0.847600
    1706 HW1         20.7221     6.3824     3.4799 opls-117      1 RES        0.423800
    1707 HW2         20.3799     4.7857     3.4823 opls-117      1 RES        0.423800
    1708 OW          16.2727     4.5171    30.0421 opls-116      1 RES       -0.847600
    1709 HW1         15.3094     4.2521    30.0839 opls-117      1 RES        0.423800
    1710 HW2         16.8440     3.6964    30.0305 opls-117      1 RES        0.423800
    1711 OW           5.7789    22.7828    27.0081 opls-116      1 RES       -0.847600
    1712 HW1          5.8471    21.8297    27.3030 opls-117      1 RES        0.423800
    1713 HW2          5.1892    22.8411    26.2027 opls-117      1 RES        0.423800
    1714 OW          10.9667    30.1148    18.7418 opls-116      1 RES       -0.847600
    1715 HW1         10.8013    29.6585    19.6161 opls-117      1 RES        0.423800
    1716 HW2         10.2148    29.9145    18.1137 opls-117      1 RES        0.423800
    1717 OW          10.3353    11.9340     4.8968 opls-116      1 RES       -0.847600
    1718 HW1         10.2128    11.2174     5.5834 opls-117      1 RES        0.423800
    1719 HW2          9.4541    12.1441     4.4734 opls-117      1 RES        0.423800
    1720 OW          23.6906     2.6942    21.4372 opls-116      1 RES       -0.847600
    1721 HW1         22.9729     1.9983    21.4628 opls-117      1 RES        0.423800
    1722 HW2         24.5858     2.2492    21.4156 opls-117      1 RES        0.423800
    1723 OW          29.5378     4.6118     8.7494 opls-116      1 RES       -0.847600
    1724 HW1         30.0250     4.5905     7.8763 opls-117      1 RES        0.423800
    1725 HW2         30.0706     5.1334     9.4157 opls-117      1 RES        0.423800
    1726 OW           4.2691    27.9103     5.3088 opls-116      1 RES       -0.847600
    1727 HW1          4.0287    27.1018     5.8460 opls-117      1 RES        0.423800
    1728 HW2          3.5233    28.1254     4.6783 opls-117      1 RES        0.423800
    1729 OW          18.3644    27.6454    21.5387 opls-116      1 RES       -0.847600
    1730 HW1         17.7837    27.4334    20.7527 opls-117      1 RES        0.423800
    1731 HW2         17.8027    28.0179    22.2773 opls-117      1 RES        0.423800
    1732 OW          10.5274    21.0041     6.0128 opls-116      1 RES       -0.847600
    1733 HW1         10.4832    20.0055     5.9865 opls-117      1 RES        0.423800
    1734 HW2          9.7125    21.3855     5.5764 opls-117      1 RES        0.423800
    1735 OW          11.2702    20.5837    28.4323 opls-116      1 RES       -0.847600
    1736 HW1         11.2880    20.2675    27.4838 opls-117      1 RES        0.423800
    1737 HW2         10.4657    21.1599    28.5765 opls-117      1 RES        0.423800
    1738 OW          14.9204     4.6355    12.9284 opls-116      1 RES       -0.847600
    1739 HW1         14.8388     4.9849    11.9950 opls-117      1 RES        0.423800
    1740 HW2         14.2157     3.9442    13.0883 opls-117      1 RES        0.423800
    1741 OW          12.6135    27.5861     7.5902 opls-116      1 RES       -0.847600
    1742 HW1         12.7402    28.5614     7.7713 opls-117      1 RES        0.423800
    1743 HW2         12.2500    27.4630     6.6668 opls-117      1 RES        0.423800
    1744 OW          11.1801    27.6134    28.4579 opls-116      1 RES       -0.847600
    1745 HW1         10.5498    26.8370    28.4620 opls-117      1 RES        0.423800
    1746 HW2         12.1221    27.2781    28.4673 opls-117      1 RES        0.423800
    1747 OW          27.2487    18.0994    10.3643 opls-116      1 RES       -0.847600
    1748 HW1         26.3112    18.1555    10.7075 opls-117      1 RES        0.423800
    1749 HW2         27.8142    18.7828    10.8259 opls-117      1 RES        0.423800
    1750 OW          14.3514    19.7494    12.0967 opls-116      1 RES       -0.847600
    1751 HW1         13.7294    19.5049    11.3528 opls-117      1 RES        0.423800
    1752 HW2         14.6550    20.6950    11.9801 opls-117      1 RES        0.423800
    1753 OW          25.8980     7.2165    15.6996 opls-116      1 RES       -0.847600
    1754 HW1         25.2334     7.7231    15.1505 opls-117      1 RES        0.423800
    1755 HW2         25.4176     6.5657    16.2876 opls-117      1 RES        0.423800
    1756 OW          24.6605    18.3231     2.9622 opls-116      1 RES       -0.847600
    1757 HW1         25.4925    18.0059     2.5071 opls-117      1 RES        0.423800
    1758 HW2         24.8903    19.0527     3.6062 opls-117      1 RES        0.423800
    1759 OW          29.9443    19.2868     8.7569 opls-116      1 RES       -0.847600
    1760 HW1         29.6268    18.6637     8.0421 opls-117      1 RES        0.423800
    1761 HW2         29.4435    20.1500     8.6932 opls-117      1 RES        0.423800
    1762 OW          14.3227    16.1841     8.0529 opls-116      1 RES       -0.847600
    1763 HW1         14.6595    15.6643     7.2678 opls-117      1 RES        0.423800
    1764 HW2         14.9952    16.8797     8.3055 opls-117      1 RES        0.423800
    1765 OW          15.2277    20.6333     5.1920 opls-116      1 RES       -0.847600
    1766 HW1         15.5228    21.4410     5.7023 opls-117      1 RES        0.423800
    1767 HW2         14.5971    20.0967     5.7528 opls-117      1 RES        0.423800
    1768 OW          13.2345    10.5082    25.0362 opls-116      1 RES       -0.847600
    1769 HW1         13.9243    10.7474    25.7196 opls-117      1 RES        0.423800
    1770 HW2         12.6017    11.2736    24.9193 opls-117      1 RES        0.423800
    1771 OW          23.4404     8.7900    10.2121 opls-116      1 RES       -0.847600
    1772 HW1         24.0589     8.9751     9.4484 opls-117      1 RES        0.423800
    1773 HW2         23.6231     9.4362    10.9531 opls-117      1 RES        0.423800
    1774 OW          16.6462    29.0950    26.5641 opls-116      1 RES       -0.847600
    1775 HW1         16.4475    30.0675    26.6852 opls-117      1 RES        0.423800
    1776 HW2         17.5729    28.9015    26.8861 opls-117      1 RES        0.423800
    1777 OW          10.9092     9.2022     3.2805 opls-116      1 RES       -0.847600
    1778 HW1         10.8121     8.7934     4.1880 opls-117      1 RES        0.423800
    1779 HW2         10.1708     8.8791     2.6887 opls-117      1 RES        0.423800
    1780 OW           2.7956    27.4050    20.0413 opls-116      1 RES       -0.847600
    1781 HW1          2.8971    26.9366    19.1636 opls-117      1 RES        0.423800
    1782 HW2          2.0051    28.0162    20.0034 opls-117      1 RES        0.423800
    1783 OW          13.9698     5.3996     6.8610 opls-116      1 RES       -0.847600
    1784 HW1         13.1225     5.9119     6.7216 opls-117      1 RES        0.423800
    1785 HW2         13.8998     4.5102     6.4093 opls-117      1 RES        0.423800
    1786 OW          15.7092    17.9229     5.4006 opls-116      1 RES       -0.847600
    1787 HW1         15.3540    17.4679     6.2172 opls-117      1 RES        0.423800
    1788 HW2         14.9511    18.1508     4.7897 opls-117      1 RES        0.423800
    1789 OW          21.5353     8.0186    12.1105 opls-116      1 RES       -0.847600
    1790 HW1         21.5117     8.4617    11.2143 opls-117      1 RES        0.423800
    1791 HW2         20.7393     7.4212    12.2079 opls-117      1 RES        0.423800
    1792 OW           8.3785     9.3846    21.7884 opls-116      1 RES       -0.847600
    1793 HW1          8.8658    10.2531    21.6980 opls-117      1 RES        0.423800
    1794 HW2          7.3959     9.5418    21.6892 opls-117      1 RES        0.423800
    1795 OW           2.8979    10.2675    28.6093 opls-116      1 RES       -0.847600
    1796 HW1          2.8556    11.2640    28.6802 opls-117      1 RES        0.423800
    1797 HW2          1.9756     9.8885    28.6849 opls-117      1 RES        0.423800
    1798 OW          20.5885    10.8378    15.8931 opls-116      1 RES       -0.847600
    1799 HW1         20.9222    10.2579    16.6363 opls-117      1 RES        0.423800
    1800 HW2         21.3660    11.2279    15.3999 opls-117      1 RES        0.423800
    1801 OW          11.0091     4.1830     2.0119 opls-116      1 RES       -0.847600
    1802 HW1         10.0708     4.5287     2.0000 opls-117      1 RES        0.423800
    1803 HW2         11.6441     4.9462     2.1315 opls-117      1 RES        0.423800
    1804 OW          20.1090     5.0256    29.3263 opls-116      1 RES       -0.847600
    1805 HW1         20.7047     4.7309    30.0734 opls-117      1 RES        0.423800
    1806 HW2         20.5094     4.7503    28.4523 opls-117      1 RES        0.423800
    1807 OW          20.2844    12.3167     8.1555 opls-116      1 RES       -0.847600
    1808 HW1         20.3252    13.2878     8.3906 opls-117      1 RES        0.423800
    1809 HW2         21.2128    11.9557     8.0674 opls-117      1 RES        0.423800
    1810 OW          16.9011    16.1403     1.9993 opls-116      1 RES       -0.847600
    1811 HW1         16.2746    15.3609     2.0060 opls-117      1 RES        0.423800
    1812 HW2         16.7403    16.7041     2.8094 opls-117      1 RES        0.423800
    1813 OW           8.7130     8.0241    16.9257 opls-116      1 RES       -0.847600
    1814 HW1          8.5724     9.0023    16.7723 opls-117      1 RES        0.423800
    1815 HW2          7.8411     7.5950    17.1613 opls-117      1 RES        0.423800
    1816 OW          16.6493     9.0809     5.8906 opls-116      1 RES       -0.847600
    1817 HW1         17.4991     8.6476     6.1908 opls-117      1 RES        0.423800
    1818 HW2         15.9429     8.3830     5.7725 opls-117      1 RES        0.423800
    1819 OW          20.8621    25.9813    13.9386 opls-116      1 RES       -0.847600
    1820 HW1         20.5374    26.8712    13.6181 opls-117      1 RES        0.423800
    1821 HW2         20.6408    25.2814    13.2595 opls-117      1 RES        0.423800
    1822 OW          15.4268     2.2695    29.1399 opls-116      1 RES       -0.847600
    1823 HW1         16.2981     1.9706    28.7506 opls-117      1 RES        0.423800
    1824 HW2         15.3735     1.9832    30.0966 opls-117      1 RES        0.423800
    1825 OW          19.8168    11.3958    29.6737 opls-116      1 RES       -0.847600
    1826 HW1         19.0773    12.0361    29.4662 opls-117      1 RES        0.423800
    1827 HW2         20.5880    11.8942    30.0698 opls-117      1 RES        0.423800
    1828 OW           7.9873    27.4832    14.9923 opls-116      1 RES       -0.847600
    1829 HW1          8.3802    28.0790    14.2918 opls-117      1 RES        0.423800
    1830 HW2          8.6406    26.7614    15.2206 opls-117      1 RES        0.423800
    1831 OW          21.2007    23.2705    16.6607 opls-116      1 RES       -0.847600
    1832 HW1         21.2089    24.2026    17.0229 opls-117      1 RES        0.423800
    1833 HW2         21.9589    22.7524    17.0565 opls-117      1 RES        0.423800
    1834 OW          27.7080     5.9275    13.9418 opls-116      1 RES       -0.847600
    1835 HW1         27.5982     5.2495    13.2150 opls-117      1 RES        0.423800
    1836 HW2         27.1290     5.6800    14.7187 opls-117      1 RES        0.423800
    1837 OW          19.1605    19.4380    15.6626 opls-116      1 RES       -0.847600
    1838 HW1         19.8740    19.0626    16.2543 opls-117      1 RES        0.423800
    1839 HW2         18.2789    19.0334    15.9057 opls-117      1 RES        0.423800
    1840 OW          27.0102    29.9347    10.3088 opls-116      1 RES       -0.847600
    1841 HW1         27.2898    29.0007    10.0863 opls-117      1 RES        0.423800
    1842 HW2         26.0567    30.0703    10.0394 opls-117      1 RES        0.423800
    1843 OW          16.8956     7.2519    26.2677 opls-116      1 RES       -0.847600
    1844 HW1         16.0168     6.7772    26.3171 opls-117      1 RES        0.423800
    1845 HW2         17.6340     6.5805    26.2044 opls-117      1 RES        0.423800
    1846 OW           2.9122    17.0967    30.0224 opls-116      1 RES       -0.847600
    1847 HW1          3.5819    16.3675    29.8816 opls-117      1 RES        0.423800
    1848 HW2          2.1808    17.0129    29.3457 opls-117      1 RES        0.423800
    1849 OW           6.2297    15.2393    22.7564 opls-116      1 RES       -0.847600
    1850 HW1          5.5017    15.8389    22.4242 opls-117      1 RES        0.423800
    1851 HW2          6.2110    15.2144    23.7560 opls-117      1 RES        0.423800
    1852 OW           4.0328     8.1591    21.1419 opls-116      1 RES       -0.847600
    1853 HW1          4.1308     7.1916    20.9090 opls-117      1 RES        0.423800
    1854 HW2          4.8894     8.6371    20.9478 opls-117      1 RES        0.423800
    1855 OW          18.8822    13.0110    11.9604 opls-116      1 RES       -0.847600
    1856 HW1         17.9043    13.2160    11.9195 opls-117      1 RES        0.423800
    1857 HW2         19.0111    12.0437    12.1788 opls-117      1 RES        0.423800
    1858 OW           9.0896     6.5708    28.2549 opls-116      1 RES       -0.847600
    1859 HW1          9.1375     6.3853    27.2735 opls-117      1 RES        0.423800
    1860 HW2          8.1330     6.6698    28.5292 opls-117      1 RES        0.423800
    1861 OW          24.8161    20.4449     8.5461 opls-116      1 RES       -0.847600
    1862 HW1         25.2808    20.1799     7.7012 opls-117      1 RES        0.423800
    1863 HW2         24.1984    19.7118     8.8308 opls-117      1 RES        0.423800
    1864 OW          11.1318    26.0060     3.1664 opls-116      1 RES       -0.847600
    1865 HW1         11.7754    25.7427     3.8850 opls-117      1 RES        0.423800
    1866 HW2         10.8362    25.1906     2.6686 opls-117      1 RES        0.423800
    1867 OW          12.2896    12.4336    22.9670 opls-116      1 RES       -0.847600
    1868 HW1         11.3225    12.6485    22.8305 opls-117      1 RES        0.423800
    1869 HW2         12.8478    13.2117    22.6789 opls-117      1 RES        0.423800
    1870 OW          10.8473     9.0766    29.5937 opls-116      1 RES       -0.847600
    1871 HW1         11.5980     9.5052    30.0964 opls-117      1 RES        0.423800
    1872 HW2         11.2145     8.5733    28.8114 opls-117      1 RES        0.423800
    1873 OW          26.4983     9.4281    11.3635 opls-116      1 RES       -0.847600
    1874 HW1         25.7994     9.5633    10.6611 opls-117      1 RES        0.423800
    1875 HW2         26.2889    10.0003    12.1565 opls-117      1 RES        0.423800
    1876 OW           6.1458     6.3444    11.0780 opls-116      1 RES       -0.847600
    1877 HW1          5.9112     7.0367    10.3955 opls-117      1 RES        0.423800
    1878 HW2          6.9694     5.8567    10.7885 opls-117      1 RES        0.423800
    1879 OW          11.6133    16.2372    19.0180 opls-116      1 RES       -0.847600
    1880 HW1         12.4559    16.5988    19.4172 opls-117      1 RES        0.423800
    1881 HW2         11.8058    15.3664    18.5655 opls-117      1 RES        0.423800
    1882 OW          13.7563    23.5723     5.1061 opls-116      1 RES       -0.847600
    1883 HW1         13.2255    24.2493     4.5962 opls-117      1 RES        0.423800
    1884 HW2         13.2905    23.3623     5.9657 opls-117      1 RES        0.423800
    1885 OW          24.8052    22.3633    16.7205 opls-116      1 RES       -0.847600
    1886 HW1         24.1088    22.4729    17.4297 opls-117      1 RES        0.423800
    1887 HW2         24.4762    21.7229    16.0265 opls-117      1 RES        0.423800
    1888 OW           2.7189    12.3518    26.7743 opls-116      1 RES       -0.847600
    1889 HW1          1.9966    11.6699    26.6595 opls-117      1 RES        0.423800
    1890 HW2          2.4595    13.1947    26.3028 opls-117      1 RES        0.423800
    1891 OW           6.9310     2.4264    24.4522 opls-116      1 RES       -0.847600
    1892 HW1          7.8157     2.6187    24.8768 opls-117      1 RES        0.423800
    1893 HW2          6.4187     3.2790    24.3485 opls-117      1 RES        0.423800
    1894 OW          14.4218     8.3677    27.3438 opls-116      1 RES       -0.847600
    1895 HW1         13.9267     9.2362    27.3183 opls-117      1 RES        0.423800
    1896 HW2         14.4608     8.0338    28.2856 opls-117      1 RES        0.423800
    1897 OW          26.8310     6.5910     5.6475 opls-116      1 RES       -0.847600
    1898 HW1         27.8108     6.4122     5.5575 opls-117      1 RES        0.423800
    1899 HW2         26.3185     5.7649     5.4131 opls-117      1 RES        0.423800
    1900 OW          17.3169    14.9665    26.2069 opls-116      1 RES       -0.847600
    1901 HW1         16.8909    14.1660    25.7852 opls-117      1 RES        0.423800
    1902 HW2         18.3114    14.8923    26.1334 opls-117      1 RES        0.423800
    1903 OW           4.0186     4.6625    15.2101 opls-116      1 RES       -0.847600
    1904 HW1          3.1929     4.2572    14.8178 opls-117      1 RES        0.423800
    1905 HW2          4.7782     4.0174    15.1272 opls-117      1 RES        0.423800
    1906 OW           2.9185     9.3987    12.0530 opls-116      1 RES       -0.847600
    1907 HW1          3.4905     9.2325    12.8562 opls-117      1 RES        0.423800
    1908 HW2          1.9943     9.6426    12.3467 opls-117      1 RES        0.423800
    1909 OW           7.4960    19.8068    19.8589 opls-116      1 RES       -0.847600
    1910 HW1          7.9332    20.1722    20.6808 opls-117      1 RES        0.423800
    1911 HW2          7.6613    18.8221    19.8032 opls-117      1 RES        0.423800
    1912 OW          27.4474     5.2818    10.8689 opls-116      1 RES       -0.847600
    1913 HW1         28.4463     5.3268    10.8867 opls-117      1 RES        0.423800
    1914 HW2         27.1468     4.4015    11.2358 opls-117      1 RES        0.423800
    1915 OW          23.9230    29.6214    10.3300 opls-116      1 RES       -0.847600
    1916 HW1         24.3416    28.7144    10.2832 opls-117      1 RES        0.423800
    1917 HW2         22.9273    29.5290    10.3374 opls-117      1 RES        0.423800
    1918 OW          14.8201    16.2760    14.8328 opls-116      1 RES       -0.847600
    1919 HW1         15.1477    16.3332    15.7758 opls-117      1 RES        0.423800
    1920 HW2         15.5693    15.9874    14.2366 opls-117      1 RES        0.423800
    1921 OW          22.1190     2.0797    14.0704 opls-116      1 RES       -0.847600
    1922 HW1         21.9094     3.0261    14.3164 opls-117      1 RES        0.423800
    1923 HW2         22.1448     1.9920    13.0746 opls-117      1 RES        0.423800
    1924 OW          20.3931     8.0386     5.7252 opls-116      1 RES       -0.847600
    1925 HW1         20.2132     7.9842     6.7073 opls-117      1 RES        0.423800
    1926 HW2         19.8428     7.3540     5.2471 opls-117      1 RES        0.423800
    1927 OW          20.1082     4.0918    16.9071 opls-116      1 RES       -0.847600
    1928 HW1         19.9327     3.5081    16.1143 opls-117      1 RES        0.423800
    1929 HW2         19.2573     4.2309    17.4136 opls-117      1 RES        0.423800
    1930 OW          29.7738    13.0088    28.5404 opls-116      1 RES       -0.847600
    1931 HW1         30.0700    12.8039    27.6076 opls-117      1 RES        0.423800
    1932 HW2         29.9669    12.2254    29.1312 opls-117      1 RES        0.423800
    1933 OW           9.1951     3.4572    23.0210 opls-116      1 RES       -0.847600
    1934 HW1          9.1488     4.0352    23.8356 opls-117      1 RES        0.423800
    1935 HW2          8.2777     3.1337    22.7892 opls-117      1 RES        0.423800
    1936 OW          15.5381    17.4266    17.6434 opls-116      1 RES       -0.847600
    1937 HW1         15.2067    16.6892    18.2321 opls-117      1 RES        0.423800
    1938 HW2         14.7590    17.9147    17.2501 opls-117      1 RES        0.423800
    1939 OW          29.8684    20.6877    22.3293 opls-116      1 RES       -0.847600
    1940 HW1         29.2028    20.6940    23.0756 opls-117      1 RES        0.423800
    1941 HW2         29.3869    20.6543    21.4535 opls-117      1 RES        0.423800
    1942 OW          29.2315     2.7046    10.7478 opls-116      1 RES       -0.847600
    1943 HW1         30.0190     3.1142    10.2873 opls-117      1 RES        0.423800
    1944 HW2         28.9945     3.2503    11.5516 opls-117      1 RES        0.423800
    1945 OW          14.2495    12.8606    27.6035 opls-116      1 RES       -0.847600
    1946 HW1         15.1577    12.4535    27.5061 opls-117      1 RES        0.423800
    1947 HW2         13.7030    12.6542    26.7919 opls-117      1 RES        0.423800
    1948 OW          20.9496    27.5833    16.9355 opls-116      1 RES       -0.847600
    1949 HW1         20.3540    26.7820    16.8789 opls-117      1 RES        0.423800
    1950 HW2         20.4735    28.3191    17.4171 opls-117      1 RES        0.423800
    1951 OW           6.4412    19.3732    22.0842 opls-116      1 RES       -0.847600
    1952 HW1          5.8798    19.7544    21.3497 opls-117      1 RES        0.423800
    1953 HW2          6.8655    20.1175    22.5999 opls-117      1 RES        0.423800
    1954 OW          21.9536    21.2756     4.4408 opls-116      1 RES       -0.847600
    1955 HW1         21.2747    21.4335     5.1578 opls-117      1 RES        0.423800
    1956 HW2         22.3749    22.1453     4.1834 opls-117      1 RES        0.423800
    1957 OW           9.3372    16.9088    19.7745 opls-116      1 RES       -0.847600
    1958 HW1          9.6643    15.9932    20.0083 opls-117      1 RES        0.423800
    1959 HW2          8.4705    16.8371    19.2808 opls-117      1 RES        0.423800
    1960 OW          15.4563    12.9316    15.8668 opls-116      1 RES       -0.847600
    1961 HW1         15.0506    13.8427    15.9399 opls-117      1 RES        0.423800
    1962 HW2         16.3207    12.9104    16.3693 opls-117      1 RES        0.423800
    1963 OW           7.2371     8.6250    23.7030 opls-116      1 RES       -0.847600
    1964 HW1          8.0792     8.1074    23.5519 opls-117      1 RES        0.423800
    1965 HW2          6.8052     8.3187    24.5514 opls-117      1 RES        0.423800
    1966 OW           7.3594     4.3035    26.2155 opls-116      1 RES       -0.847600
    1967 HW1          6.7094     3.6009    26.5051 opls-117      1 RES        0.423800
    1968 HW2          6.9030     5.1931    26.1981 opls-117      1 RES        0.423800
    1969 OW           6.3629    25.3500    27.1208 opls-116      1 RES       -0.847600
    1970 HW1          6.3602    26.3385    26.9696 opls-117      1 RES        0.423800
    1971 HW2          5.5375    24.9497    26.7227 opls-117      1 RES        0.423800
    1972 OW           2.3943    14.1426    19.3208 opls-116      1 RES       -0.847600
    1973 HW1          1.9967    13.2292    19.4081 opls-117      1 RES        0.423800
    1974 HW2          1.9976    14.7463    20.0124 opls-117      1 RES        0.423800
    1975 OW          17.0459     2.9673    12.9134 opls-116      1 RES       -0.847600
    1976 HW1         17.3851     2.0585    12.6706 opls-117      1 RES        0.423800
    1977 HW2         17.6584     3.3831    13.5856 opls-117      1 RES        0.423800
    1978 OW          28.1507    21.0453    27.8626 opls-116      1 RES       -0.847600
    1979 HW1         28.1716    21.3774    28.8056 opls-117      1 RES        0.423800
    1980 HW2         27.3115    21.3580    27.4176 opls-117      1 RES        0.423800
    1981 OW           4.6812    28.6371    10.7664 opls-116      1 RES       -0.847600
    1982 HW1          5.1546    28.7991    11.6323 opls-117      1 RES        0.423800
    1983 HW2          4.9577    29.3301    10.1007 opls-117      1 RES        0.423800
    1984 OW          29.8533    19.5088     2.9735 opls-116      1 RES       -0.847600
    1985 HW1         29.5036    20.4344     3.1187 opls-117      1 RES        0.423800
    1986 HW2         30.0611    19.3794     2.0039 opls-117      1 RES        0.423800
    1987 OW          26.2133     4.0343    27.2881 opls-116      1 RES       -0.847600
    1988 HW1         26.0659     3.1935    27.8090 opls-117      1 RES        0.423800
    1989 HW2         26.9433     3.8890    26.6202 opls-117      1 RES        0.423800
    1990 OW           2.9296    18.7631     5.7589 opls-116      1 RES       -0.847600
    1991 HW1          2.9644    17.7738     5.6167 opls-117      1 RES        0.423800
    1992 HW2          1.9991    19.0908     5.5954 opls-117      1 RES        0.423800
    1993 OW          20.2382    17.9696     2.3431 opls-116      1 RES       -0.847600
    1994 HW1         19.5317    18.6042     2.0297 opls-117      1 RES        0.423800
    1995 HW2         21.1309    18.2741     2.0107 opls-117      1 RES        0.423800
    1996 OW          22.1272    26.1771     7.6810 opls-116      1 RES       -0.847600
    1997 HW1         22.6286    25.3672     7.9854 opls-117      1 RES        0.423800
    1998 HW2         22.4700    26.4646     6.7866 opls-117      1 RES        0.423800
    1999 OW          23.4737    19.8025    23.6637 opls-116      1 RES       -0.847600
    2000 HW1         22.6084    20.2755    23.8295 opls-117      1 RES        0.423800
    2001 HW2         24.2060    20.4750    23.5564 opls-117      1 RES        0.423800
    2002 OW          18.4724    17.4602    20.2493 opls-116      1 RES       -0.847600
    2003 HW1         17.5486    17.7880    20.0512 opls-117      1 RES        0.423800
    2004 HW2         18.4981    16.4642    20.1635 opls-117      1 RES        0.423800
    2005 OW          26.2372     3.8577    16.6885 opls-116      1 RES       -0.847600
    2006 HW1         27.1078     4.2300    16.3669 opls-117      1 RES        0.423800
    2007 HW2         25.4833     4.3673    16.2738 opls-117      1 RES        0.423800
    2008 OW          17.6452     5.7064     4.2831 opls-116      1 RES       -0.847600
    2009 HW1         16.7368     5.3449     4.4934 opls-117      1 RES        0.423800
    2010 HW2         18.0589     6.0733     5.1163 opls-117      1 RES        0.423800
    2011 OW          16.0897    10.8715    15.4280 opls-116      1 RES       -0.847600
    2012 HW1         15.9857     9.8769    15.4279 opls-117      1 RES        0.423800
    2013 HW2         16.6604    11.1471    14.6545 opls-117      1 RES        0.423800
    2014 OW           7.8021     3.9799    28.3772 opls-116      1 RES       -0.847600
    2015 HW1          7.5969     4.6194    29.1180 opls-117      1 RES        0.423800
    2016 HW2          8.6839     4.2152    27.9684 opls-117      1 RES        0.423800
    2017 OW          23.8700    24.5432    21.1585 opls-116      1 RES       -0.847600
    2018 HW1         24.2438    24.2444    22.0366 opls-117      1 RES        0.423800
    2019 HW2         23.5383    25.4831    21.2399 opls-117      1 RES        0.423800
    2020 OW          20.4954     6.7988    16.9553 opls-116      1 RES       -0.847600
    2021 HW1         19.6751     6.7342    17.5235 opls-117      1 RES        0.423800
    2022 HW2         21.1062     6.0349    17.1636 opls-117      1 RES        0.423800
    2023 OW          13.9571     5.9619    23.5750 opls-116      1 RES       -0.847600
    2024 HW1         13.0092     6.0205    23.8882 opls-117      1 RES        0.423800
    2025 HW2         14.4376     6.8078    23.8064 opls-117      1 RES        0.423800
    2026 OW           5.3184    16.8362    27.7154 opls-116      1 RES       -0.847600
    2027 HW1          5.1880    16.1190    28.4000 opls-117      1 RES        0.423800
    2028 HW2          4.8366    16.5867    26.8754 opls-117      1 RES        0.423800
    2029 OW          25.2300    17.0866    25.9059 opls-116      1 RES       -0.847600
    2030 HW1         24.4713    17.1846    26.5499 opls-117      1 RES        0.423800
    2031 HW2         25.6333    17.9840    25.7269 opls-117      1 RES        0.423800
    2032 OW          29.0251    27.0268    18.6429 opls-116      1 RES       -0.847600
    2033 HW1         29.4747    26.3532    19.2295 opls-117      1 RES        0.423800
    2034 HW2         29.5056    27.0799    17.7675 opls-117      1 RES        0.423800
    2035 OW           3.7511    22.8155    27.8667 opls-116      1 RES       -0.847600
    2036 HW1          2.7849    22.5665    27.9341 opls-117      1 RES        0.423800
    2037 HW2          3.8302    23.7879    27.6472 opls-117      1 RES        0.423800
    2038 OW          15.1860    19.4179     2.3471 opls-116      1 RES       -0.847600
    2039 HW1         14.8316    19.7048     3.2371 opls-117      1 RES        0.423800
    2040 HW2         14.6371    18.6579     1.9990 opls-117      1 RES        0.423800
    2041 OW           7.0773    18.8745    10.6692 opls-116      1 RES       -0.847600
    2042 HW1          7.2944    19.8279    10.8785 opls-117      1 RES        0.423800
    2043 HW2          7.2829    18.3036    11.4640 opls-117      1 RES        0.423800
    2044 OW          12.7316    22.9897    22.3949 opls-116      1 RES       -0.847600
    2045 HW1         12.9797    22.8148    23.3477 opls-117      1 RES        0.423800
    2046 HW2         12.1777    22.2319    22.0501 opls-117      1 RES        0.423800
    2047 OW          23.3172    24.5575    16.1563 opls-116      1 RES       -0.847600
    2048 HW1         23.6696    23.8415    15.5536 opls-117      1 RES        0.423800
    2049 HW2         22.6635    25.1238    15.6544 opls-117      1 RES        0.423800
    2050 OW          20.1228    21.6898    27.2716 opls-116      1 RES       -0.847600
    2051 HW1         19.4425    22.3824    27.0318 opls-117      1 RES        0.423800
    2052 HW2         20.0260    20.9026    26.6625 opls-117      1 RES        0.423800
    2053 OW          23.3218    23.3389    24.1554 opls-116      1 RES       -0.847600
    2054 HW1         23.9715    22.7723    23.6485 opls-117      1 RES        0.423800
    2055 HW2         23.6330    24.2892    24.1495 opls-117      1 RES        0.423800
    2056 OW          24.4889     7.8362     2.7003 opls-116      1 RES       -0.847600
    2057 HW1         24.6173     7.1341     1.9999 opls-117      1 RES        0.423800
    2058 HW2         23.7576     7.5565     3.3224 opls-117      1 RES        0.423800
    2059 OW          14.5253    12.7037    24.7531 opls-116      1 RES       -0.847600
    2060 HW1         15.3439    12.6825    25.3270 opls-117      1 RES        0.423800
    2061 HW2         14.5767    13.4824    24.1278 opls-117      1 RES        0.423800
    2062 OW          10.1877     8.2658    18.5809 opls-116      1 RES       -0.847600
    2063 HW1         11.1790     8.3603    18.6725 opls-117      1 RES        0.423800
    2064 HW2          9.7621     9.1700    18.6144 opls-117      1 RES        0.423800
    2065 OW           7.4666    14.0164     9.3685 opls-116      1 RES       -0.847600
    2066 HW1          7.7396    13.7301    10.2870 opls-117      1 RES        0.423800
    2067 HW2          7.1800    14.9742     9.3894 opls-117      1 RES        0.423800
    2068 OW           4.4535    20.1627     6.7103 opls-116      1 RES       -0.847600
    2069 HW1          3.5899    20.5858     6.9847 opls-117      1 RES        0.423800
    2070 HW2          5.1127    20.8756     6.4711 opls-117      1 RES        0.423800
    2071 OW           8.8536     9.6921    28.8996 opls-116      1 RES       -0.847600
    2072 HW1          7.9473     9.4726    29.2608 opls-117      1 RES        0.423800
    2073 HW2          9.1171     9.0064    28.2212 opls-117      1 RES        0.423800
    2074 OW           9.2325     9.6425    25.7707 opls-116      1 RES       -0.847600
    2075 HW1          9.8781     8.9843    26.1580 opls-117      1 RES        0.423800
    2076 HW2          8.9947    10.3233    26.4635 opls-117      1 RES        0.423800
    2077 OW          14.4319    12.4701    10.1032 opls-116      1 RES       -0.847600
    2078 HW1         15.2723    13.0113    10.1310 opls-117      1 RES        0.423800
    2079 HW2         14.6611    11.4970    10.1302 opls-117      1 RES        0.423800
    2080 OW          27.4914    10.0120    19.7560 opls-116      1 RES       -0.847600
    2081 HW1         27.3475    10.9052    19.3300 opls-117      1 RES        0.423800
    2082 HW2         27.0262     9.9859    20.6408 opls-117      1 RES        0.423800
    2083 OW           5.7779    18.7175    15.2284 opls-116      1 RES       -0.847600
    2084 HW1          6.5746    18.1898    15.5230 opls-117      1 RES        0.423800
    2085 HW2          4.9425    18.2360    15.4937 opls-117      1 RES        0.423800
    2086 OW          15.4372     2.0663    11.6537 opls-116      1 RES       -0.847600
    2087 HW1         14.6066     1.9789    12.2038 opls-117      1 RES        0.423800
    2088 HW2         15.5230     3.0074    11.3267 opls-117      1 RES        0.423800
    2089 OW          28.8416     5.8674    19.1596 opls-116      1 RES       -0.847600
    2090 HW1         28.6135     5.3714    19.9973 opls-117      1 RES        0.423800
    2091 HW2         29.6087     5.4163    18.7034 opls-117      1 RES        0.423800
    2092 OW          15.2589    10.7820    12.9996 opls-116      1 RES       -0.847600
    2093 HW1         14.7321     9.9373    12.9056 opls-117      1 RES        0.423800
    2094 HW2         14.6504    11.5681    12.8914 opls-117      1 RES        0.423800
    2095 OW           6.6481    20.6605    14.6648 opls-116      1 RES       -0.847600
    2096 HW1          7.4279    20.1572    15.0372 opls-117      1 RES        0.423800
    2097 HW2          6.2882    21.2809    15.3617 opls-117      1 RES        0.423800
    2098 OW          22.7966    19.6382     5.6653 opls-116      1 RES       -0.847600
    2099 HW1         21.8925    19.5038     6.0711 opls-117      1 RES        0.423800
    2100 HW2         23.5008    19.4338     6.3452 opls-117      1 RES        0.423800
    2101 OW          22.0974    14.3628    27.4229 opls-116      1 RES       -0.847600
    2102 HW1         21.9468    15.2648    27.8274 opls-117      1 RES        0.423800
    2103 HW2         22.8545    13.9089    27.8928 opls-117      1 RES        0.423800
    2104 OW          28.1349    13.3187     8.0517 opls-116      1 RES       -0.847600
    2105 HW1         27.1570    13.1288     7.9635 opls-117      1 RES        0.423800
    2106 HW2         28.5019    13.5964     7.1640 opls-117      1 RES        0.423800
    2107 OW           4.4799    10.7307    30.0648 opls-116      1 RES       -0.847600
    2108 HW1          5.4113    10.3824    29.9591 opls-117      1 RES        0.423800
    2109 HW2          4.4969    11.7305    30.0727 opls-117      1 RES        0.423800
    2110 OW          17.0588    17.4811    11.2428 opls-116      1 RES       -0.847600
    2111 HW1         17.3370    17.7662    10.3256 opls-117      1 RES        0.423800
    2112 HW2         16.0908    17.2302    11.2346 opls-117      1 RES        0.423800
    2113 OW          23.8277    17.2513     6.3896 opls-116      1 RES       -0.847600
    2114 HW1         23.4140    16.4111     6.7400 opls-117      1 RES        0.423800
    2115 HW2         24.6858    17.4268     6.8722 opls-117      1 RES        0.423800
    2116 OW          22.9084    20.2826     2.7260 opls-116      1 RES       -0.847600
    2117 HW1         22.1481    20.4627     2.1019 opls-117      1 RES        0.423800
    2118 HW2         22.7602    19.4083     3.1883 opls-117      1 RES        0.423800
    2119 OW          16.2247     9.6376    27.9073 opls-116      1 RES       -0.847600
    2120 HW1         16.6395    10.1279    27.1408 opls-117      1 RES        0.423800
    2121 HW2         16.5259     8.6841    27.8953 opls-117      1 RES        0.423800
    2122 OW          16.1946    18.5047    29.9344 opls-116      1 RES       -0.847600
    2123 HW1         16.1497    19.5026    29.8894 opls-117      1 RES        0.423800
    2124 HW2         17.1488    18.2174    30.0177 opls-117      1 RES        0.423800
    2125 OW          17.4138    24.6495     3.5097 opls-116      1 RES       -0.847600
    2126 HW1         18.1075    23.9810     3.2416 opls-117      1 RES        0.423800
    2127 HW2         17.8409    25.5468     3.6209 opls-117      1 RES        0.423800
    2128 OW           6.7491     7.4945    21.2161 opls-116      1 RES       -0.847600
    2129 HW1          6.5242     7.2342    22.1550 opls-117      1 RES        0.423800
    2130 HW2          6.4528     6.7730    20.5902 opls-117      1 RES        0.423800
    2131 OW          28.6277    21.3010     5.1760 opls-116      1 RES       -0.847600
    2132 HW1         28.0718    22.1302     5.1173 opls-117      1 RES        0.423800
    2133 HW2         29.5961    21.5498     5.1975 opls-117      1 RES        0.423800
    2134 OW           5.9758    14.3506     7.6582 opls-116      1 RES       -0.847600
    2135 HW1          5.5667    13.5241     7.2714 opls-117      1 RES        0.423800
    2136 HW2          5.6671    15.1488     7.1409 opls-117      1 RES        0.423800
    2137 OW          24.6135    29.6253    29.7289 opls-116      1 RES       -0.847600
    2138 HW1         24.7857    30.0713    28.8506 opls-117      1 RES        0.423800
    2139 HW2         25.4633    29.2249    30.0718 opls-117      1 RES        0.423800
    2140 OW          10.1124    27.8169     6.2858 opls-116      1 RES       -0.847600
    2141 HW1         10.5159    28.5018     5.6790 opls-117      1 RES        0.423800
    2142 HW2          9.2010    28.1168     6.5676 opls-117      1 RES        0.423800
    2143 OW          22.1777    24.1259     5.1196 opls-116      1 RES       -0.847600
    2144 HW1         21.8889    25.0815     5.1776 opls-117      1 RES        0.423800
    2145 HW2         21.5570    23.5568     5.6590 opls-117      1 RES        0.423800
    2146 OW          14.2077     2.8162     3.5348 opls-116      1 RES       -0.847600
    2147 HW1         13.3231     3.0739     3.9236 opls-117      1 RES        0.423800
    2148 HW2         14.3855     3.3652     2.7181 opls-117      1 RES        0.423800
    2149 OW          15.6391     8.5240    30.0770 opls-116      1 RES       -0.847600
    2150 HW1         16.5363     8.9657    30.0767 opls-117      1 RES        0.423800
    2151 HW2         14.9236     9.2226    30.0770 opls-117      1 RES        0.423800
    2152 OW          22.7494    18.4028    12.6045 opls-116      1 RES       -0.847600
    2153 HW1         21.7530    18.3946    12.5206 opls-117      1 RES        0.423800
    2154 HW2         23.0457    19.2843    12.9720 opls-117      1 RES        0.423800
    2155 OW          21.3558    21.7827    19.0077 opls-116      1 RES       -0.847600
    2156 HW1         21.3085    21.2712    19.8657 opls-117      1 RES        0.423800
    2157 HW2         21.4895    22.7538    19.2055 opls-117      1 RES        0.423800
    2158 OW          26.4979     7.2972    28.2259 opls-116      1 RES       -0.847600
    2159 HW1         25.6115     7.7586    28.2653 opls-117      1 RES        0.423800
    2160 HW2         26.3591     6.3240    28.0424 opls-117      1 RES        0.423800
    2161 OW          22.1918    18.0142     8.4352 opls-116      1 RES       -0.847600
    2162 HW1         22.0471    18.9746     8.1971 opls-117      1 RES        0.423800
    2163 HW2         23.1708    17.8108     8.4199 opls-117      1 RES        0.423800
    2164 OW           2.0843    15.8578    25.7397 opls-116      1 RES       -0.847600
    2165 HW1          1.9999    15.3092    24.9080 opls-117      1 RES        0.423800
    2166 HW2          1.9410    16.8225    25.5186 opls-117      1 RES        0.423800
    2167 OW          23.2402    17.3885    19.9005 opls-116      1 RES       -0.847600
    2168 HW1         24.2337    17.4996    19.8770 opls-117      1 RES        0.423800
    2169 HW2         22.8026    18.2405    19.6130 opls-117      1 RES        0.423800
    2170 OW          23.9702     6.9752    18.8707 opls-116      1 RES       -0.847600
    2171 HW1         24.7866     6.6193    18.4159 opls-117      1 RES        0.423800
    2172 HW2         24.2416     7.6111    19.5932 opls-117      1 RES        0.423800
    2173 OW          26.5210     2.5441    12.4892 opls-116      1 RES       -0.847600
    2174 HW1         27.3254     1.9996    12.2517 opls-117      1 RES        0.423800
    2175 HW2         25.6962     1.9930    12.3625 opls-117      1 RES        0.423800
    2176 OW          14.9539    21.0942    25.1946 opls-116      1 RES       -0.847600
    2177 HW1         15.8894    21.1583    24.8472 opls-117      1 RES        0.423800
    2178 HW2         14.9285    21.4084    26.1437 opls-117      1 RES        0.423800
    2179 OW          13.8986     4.5544    25.2645 opls-116      1 RES       -0.847600
    2180 HW1         14.5520     4.4215    26.0097 opls-117      1 RES        0.423800
    2181 HW2         12.9821     4.6824    25.6436 opls-117      1 RES        0.423800
    2182 OW           5.2484    21.0260    10.8720 opls-116      1 RES       -0.847600
    2183 HW1          5.5937    21.8917    10.5097 opls-117      1 RES        0.423800
    2184 HW2          4.3203    21.1570    11.2206 opls-117      1 RES        0.423800
    2185 OW           8.3454    10.2443     4.4982 opls-116      1 RES       -0.847600
    2186 HW1          7.3487    10.2341     4.4181 opls-117      1 RES        0.423800
    2187 HW2          8.6916     9.3065     4.4709 opls-117      1 RES        0.423800
    2188 OW          20.4433    18.6623    23.2301 opls-116      1 RES       -0.847600
    2189 HW1         20.8576    19.4542    22.7814 opls-117      1 RES        0.423800
    2190 HW2         20.8728    17.8250    22.8917 opls-117      1 RES        0.423800
    2191 OW          22.0298    23.8215    22.4427 opls-116      1 RES       -0.847600
    2192 HW1         21.0821    23.5354    22.3011 opls-117      1 RES        0.423800
    2193 HW2         22.0512    24.7866    22.7037 opls-117      1 RES        0.423800
    2194 OW          29.1460    24.7505    11.6520 opls-116      1 RES       -0.847600
    2195 HW1         28.8150    23.8117    11.7474 opls-117      1 RES        0.423800
    2196 HW2         28.3667    25.3740    11.5895 opls-117      1 RES        0.423800
    2197 OW           9.8038     6.9599    11.4104 opls-116      1 RES       -0.847600
    2198 HW1          8.8936     6.9015    11.0003 opls-117      1 RES        0.423800
    2199 HW2         10.3184     6.1288    11.1993 opls-117      1 RES        0.423800
    2200 OW           8.0329     8.5698    14.3297 opls-116      1 RES       -0.847600
    2201 HW1          7.5926     7.9846    15.0106 opls-117      1 RES        0.423800
    2202 HW2          8.0245     9.5173    14.6491 opls-117      1 RES        0.423800
    2203 OW          25.2759     6.1250    23.9703 opls-116      1 RES       -0.847600
    2204 HW1         24.6380     5.9043    23.2325 opls-117      1 RES        0.423800
    2205 HW2         26.2055     5.8860    23.6898 opls-117      1 RES        0.423800
    2206 OW          27.3225    11.3482    10.6774 opls-116      1 RES       -0.847600
    2207 HW1         27.5937    12.2758    10.9340 opls-117      1 RES        0.423800
    2208 HW2         26.9611    11.3525     9.7450 opls-117      1 RES        0.423800
    2209 OW          10.1169    16.4047    29.7788 opls-116      1 RES       -0.847600
    2210 HW1         10.4772    15.5831    29.3372 opls-117      1 RES        0.423800
    2211 HW2         10.8719    16.9320    30.1686 opls-117      1 RES        0.423800
    2212 OW          22.5827    13.9241    23.7973 opls-116      1 RES       -0.847600
    2213 HW1         23.5782    13.9205    23.7024 opls-117      1 RES        0.423800
    2214 HW2         22.3155    14.6032    24.4809 opls-117      1 RES        0.423800
    2215 OW          23.2486     9.6103    26.9067 opls-116      1 RES       -0.847600
    2216 HW1         23.4372     8.7036    27.2840 opls-117      1 RES        0.423800
    2217 HW2         23.4686     9.6178    25.9313 opls-117      1 RES        0.423800
    2218 OW           8.3770    11.5336     2.0298 opls-116      1 RES       -0.847600
    2219 HW1          7.4996    11.0577     2.0908 opls-117      1 RES        0.423800
    2220 HW2          8.2195    12.5207     2.0000 opls-117      1 RES        0.423800
    2221 OW          28.4892    11.0924    12.6185 opls-116      1 RES       -0.847600
    2222 HW1         28.4789    10.2046    12.1585 opls-117      1 RES        0.423800
    2223 HW2         27.7839    11.1088    13.3272 opls-117      1 RES        0.423800
    2224 OW          18.5093    22.9668     7.3139 opls-116      1 RES       -0.847600
    2225 HW1         18.5994    22.1591     6.7312 opls-117      1 RES        0.423800
    2226 HW2         18.3947    22.6803     8.2651 opls-117      1 RES        0.423800
    2227 OW          29.3579    18.5641    14.1952 opls-116      1 RES       -0.847600
    2228 HW1         28.3989    18.3955    13.9671 opls-117      1 RES        0.423800
    2229 HW2         29.8434    17.6922    14.2595 opls-117      1 RES        0.423800
    2230 OW          20.7879     2.0517    11.3442 opls-116      1 RES       -0.847600
    2231 HW1         20.2901     1.9824    10.4797 opls-117      1 RES        0.423800
    2232 HW2         20.8557     3.0124    11.6136 opls-117      1 RES        0.423800
    2233 OW          10.0285    15.9289    26.4633 opls-116      1 RES       -0.847600
    2234 HW1         10.3115    16.5409    25.7248 opls-117      1 RES        0.423800
    2235 HW2          9.0605    16.0768    26.6662 opls-117      1 RES        0.423800
    2236 OW          13.2244    27.4239    25.2266 opls-116      1 RES       -0.847600
    2237 HW1         13.0252    27.3859    26.2059 opls-117      1 RES        0.423800
    2238 HW2         12.4141    27.1461    24.7107 opls-117      1 RES        0.423800
    2239 OW          13.8804    10.3627    15.8349 opls-116      1 RES       -0.847600
    2240 HW1         13.9817    10.5906    14.8665 opls-117      1 RES        0.423800
    2241 HW2         12.9088    10.3295    16.0695 opls-117      1 RES        0.423800
    2242 OW          20.9214     9.9529    24.9647 opls-116      1 RES       -0.847600
    2243 HW1         20.5448    10.7997    25.3402 opls-117      1 RES        0.423800
    2244 HW2         20.2151     9.4778    24.4400 opls-117      1 RES        0.423800
    2245 OW           8.4548     5.9863    18.5305 opls-116      1 RES       -0.847600
    2246 HW1          8.2547     6.5152    19.3552 opls-117      1 RES        0.423800
    2247 HW2          9.3215     6.2951    18.1386 opls-117      1 RES        0.423800
    2248 OW          28.4814    24.7827     4.0678 opls-116      1 RES       -0.847600
    2249 HW1         28.9846    23.9417     4.2664 opls-117      1 RES        0.423800
    2250 HW2         27.8770    24.6326     3.2854 opls-117      1 RES        0.423800
    2251 OW           7.4275    19.3358     6.2327 opls-116      1 RES       -0.847600
    2252 HW1          6.8348    19.6095     6.9903 opls-117      1 RES        0.423800
    2253 HW2          8.3262    19.7603     6.3425 opls-117      1 RES        0.423800
    2254 OW           7.6818    28.1859    22.3389 opls-116      1 RES       -0.847600
    2255 HW1          6.8815    27.6369    22.5799 opls-117      1 RES        0.423800
    2256 HW2          8.3170    28.2060    23.1110 opls-117      1 RES        0.423800
    2257 OW           5.7376    29.4200     2.9260 opls-116      1 RES       -0.847600
    2258 HW1          6.0421    28.8495     3.6888 opls-117      1 RES        0.423800
    2259 HW2          5.7614    28.8865     2.0805 opls-117      1 RES        0.423800
    2260 OW          12.9071    24.9957    28.0167 opls-116      1 RES       -0.847600
    2261 HW1         11.9181    25.1410    27.9900 opls-117      1 RES        0.423800
    2262 HW2         13.1003    24.0146    28.0053 opls-117      1 RES        0.423800
    2263 OW           4.5788    13.4876    24.0017 opls-116      1 RES       -0.847600
    2264 HW1          4.6890    13.0338    24.8859 opls-117      1 RES        0.423800
    2265 HW2          4.0487    12.9008    23.3896 opls-117      1 RES        0.423800
    2266 OW           9.0053    15.0128    24.7425 opls-116      1 RES       -0.847600
    2267 HW1          8.1521    15.5344    24.7378 opls-117      1 RES        0.423800
    2268 HW2          8.8934    14.1959    25.3084 opls-117      1 RES        0.423800
    2269 OW           6.8777    23.2377    22.3338 opls-116      1 RES       -0.847600
    2270 HW1          7.7988    23.6260    22.3042 opls-117      1 RES        0.423800
    2271 HW2          6.8261    22.4545    21.7141 opls-117      1 RES        0.423800
    2272 OW           6.3800    29.0759    14.5057 opls-116      1 RES       -0.847600
    2273 HW1          6.9411    29.8014    14.1072 opls-117      1 RES        0.423800
    2274 HW2          5.5525    28.9554    13.9574 opls-117      1 RES        0.423800
    2275 OW           3.4002    13.6141     7.6416 opls-116      1 RES       -0.847600
    2276 HW1          3.6666    12.7465     8.0616 opls-117      1 RES        0.423800
    2277 HW2          3.4990    14.3519     8.3094 opls-117      1 RES        0.423800
    2278 OW          16.5794    19.0851    24.5932 opls-116      1 RES       -0.847600
    2279 HW1         17.4441    19.1615    24.0966 opls-117      1 RES        0.423800
    2280 HW2         16.7447    19.2104    25.5715 opls-117      1 RES        0.423800
    2281 OW           2.0911    22.6799    13.4490 opls-116      1 RES       -0.847600
    2282 HW1          3.0530    22.9128    13.5917 opls-117      1 RES        0.423800
    2283 HW2          1.9953    21.6869    13.3795 opls-117      1 RES        0.423800
    2284 OW          28.3643    18.4965     6.2483 opls-116      1 RES       -0.847600
    2285 HW1         27.6361    18.2855     5.5961 opls-117      1 RES        0.423800
    2286 HW2         28.9263    19.2423     5.8906 opls-117      1 RES        0.423800
    2287 OW          11.3092    17.7759    28.1908 opls-116      1 RES       -0.847600
    2288 HW1         10.7088    18.4633    28.5996 opls-117      1 RES        0.423800
    2289 HW2         12.0731    18.2306    27.7328 opls-117      1 RES        0.423800
    2290 OW          21.5258    28.3851     5.3998 opls-116      1 RES       -0.847600
    2291 HW1         21.1796    27.4518     5.3043 opls-117      1 RES        0.423800
    2292 HW2         22.4893    28.3576     5.6662 opls-117      1 RES        0.423800
    2293 OW          13.3027     5.1871    15.0591 opls-116      1 RES       -0.847600
    2294 HW1         14.2885     5.0308    14.9978 opls-117      1 RES        0.423800
    2295 HW2         13.0658     5.4592    15.9918 opls-117      1 RES        0.423800
    2296 OW           2.7373    16.3071     7.6104 opls-116      1 RES       -0.847600
    2297 HW1          2.0000    15.9698     8.1956 opls-117      1 RES        0.423800
    2298 HW2          2.8591    17.2883     7.7597 opls-117      1 RES        0.423800
    2299 OW          23.9110    25.0637    13.1411 opls-116      1 RES       -0.847600
    2300 HW1         23.8600    25.0166    12.1435 opls-117      1 RES        0.423800
    2301 HW2         23.0396    25.3936    13.5042 opls-117      1 RES        0.423800
    2302 OW          19.9028    11.7217    20.1588 opls-116      1 RES       -0.847600
    2303 HW1         20.1475    11.7351    21.1283 opls-117      1 RES        0.423800
    2304 HW2         18.9172    11.5811    20.0656 opls-117      1 RES        0.423800
    2305 OW          18.6314    19.4565    22.2687 opls-116      1 RES       -0.847600
    2306 HW1         19.1304    19.1849    21.4458 opls-117      1 RES        0.423800
    2307 HW2         18.8849    20.3910    22.5190 opls-117      1 RES        0.423800
    2308 OW           8.9525    13.4970    23.1493 opls-116      1 RES       -0.847600
    2309 HW1          8.9391    12.5457    22.8411 opls-117      1 RES        0.423800
    2310 HW2          8.0210    13.8607    23.1487 opls-117      1 RES        0.423800
    2311 OW          23.4355    16.6174     4.2771 opls-116      1 RES       -0.847600
    2312 HW1         22.8107    15.9900     3.8123 opls-117      1 RES        0.423800
    2313 HW2         23.0313    17.5317     4.3034 opls-117      1 RES        0.423800
    2314 OW           2.7765    19.6472    17.1343 opls-116      1 RES       -0.847600
    2315 HW1          1.9987    20.0319    16.6374 opls-117      1 RES        0.423800
    2316 HW2          3.5250    20.3102    17.1467 opls-117      1 RES        0.423800
    2317 OW           8.6690    21.7526    18.1689 opls-116      1 RES       -0.847600
    2318 HW1          8.7048    21.5565    19.1489 opls-117      1 RES        0.423800
    2319 HW2          8.2394    22.6436    18.0227 opls-117      1 RES        0.423800
    2320 OW           9.4147     9.2885    10.0207 opls-116      1 RES       -0.847600
    2321 HW1          8.5911     9.0278    10.5243 opls-117      1 RES        0.423800
    2322 HW2          9.9550     8.4714     9.8196 opls-117      1 RES        0.423800
    2323 OW          25.1852    14.0271    12.5809 opls-116      1 RES       -0.847600
    2324 HW1         26.1157    14.3837    12.4972 opls-117      1 RES        0.423800
    2325 HW2         24.5379    14.7886    12.6114 opls-117      1 RES        0.423800
    2326 OW           9.1714     5.3045     9.5128 opls-116      1 RES       -0.847600
    2327 HW1          9.9895     4.7296     9.5271 opls-117      1 RES        0.423800
    2328 HW2          8.3566     4.7248     9.5107 opls-117      1 RES        0.423800
    2329 OW           5.1080    20.2818     8.8071 opls-116      1 RES       -0.847600
    2330 HW1          6.0195    19.9862     9.0931 opls-117      1 RES        0.423800
    2331 HW2          4.4399    19.5753     9.0406 opls-117      1 RES        0.423800
    2332 OW           9.7190    12.2212    14.1017 opls-116      1 RES       -0.847600
    2333 HW1         10.2571    11.3789    14.1298 opls-117      1 RES        0.423800
    2334 HW2          8.7451    11.9943    14.0914 opls-117      1 RES        0.423800
    2335 OW          25.2762    10.9366    15.9460 opls-116      1 RES       -0.847600
    2336 HW1         25.7498    10.1232    15.6085 opls-117      1 RES        0.423800
    2337 HW2         25.0129    10.7971    16.9006 opls-117      1 RES        0.423800
    2338 OW           6.1354    29.4265    21.3613 opls-116      1 RES       -0.847600
    2339 HW1          6.6458    30.0803    21.9199 opls-117      1 RES        0.423800
    2340 HW2          6.6234    29.2690    20.5029 opls-117      1 RES        0.423800
    2341 OW          20.8712    12.0745    18.0838 opls-116      1 RES       -0.847600
    2342 HW1         21.3214    11.3019    18.5314 opls-117      1 RES        0.423800
    2343 HW2         19.9000    11.8694    17.9621 opls-117      1 RES        0.423800
    2344 OW          20.1682    29.9838    27.4520 opls-116      1 RES       -0.847600
    2345 HW1         19.4330    30.0714    26.7799 opls-117      1 RES        0.423800
    2346 HW2         21.0521    30.0699    26.9923 opls-117      1 RES        0.423800
    2347 OW          21.8141    10.9674     6.0552 opls-116      1 RES       -0.847600
    2348 HW1         20.8617    10.7364     6.2541 opls-117      1 RES        0.423800
    2349 HW2         21.8825    11.9411     5.8376 opls-117      1 RES        0.423800
    2350 OW          12.7758    21.8619    26.1461 opls-116      1 RES       -0.847600
    2351 HW1         12.7594    20.8781    25.9675 opls-117      1 RES        0.423800
    2352 HW2         11.8923    22.1482    26.5166 opls-117      1 RES        0.423800
    2353 OW          29.6962     5.8749    13.0030 opls-116      1 RES       -0.847600
    2354 HW1         30.0857     6.1244    12.1164 opls-117      1 RES        0.423800
    2355 HW2         30.0739     4.9971    13.2977 opls-117      1 RES        0.423800
    2356 OW          19.1371     5.4027     9.2626 opls-116      1 RES       -0.847600
    2357 HW1         18.2891     5.0120     8.9045 opls-117      1 RES        0.423800
    2358 HW2         19.1021     5.4158    10.2619 opls-117      1 RES        0.423800
    2359 OW          12.8407    19.1828     6.9556 opls-116      1 RES       -0.847600
    2360 HW1         13.6903    18.7232     7.2143 opls-117      1 RES        0.423800
    2361 HW2         12.8311    20.1063     7.3392 opls-117      1 RES        0.423800
    2362 OW          29.7822    11.2650     8.2483 opls-116      1 RES       -0.847600
    2363 HW1         30.0112    12.1246     7.7916 opls-117      1 RES        0.423800
    2364 HW2         28.8700    11.3348     8.6521 opls-117      1 RES        0.423800
    2365 OW          14.1636    21.9091     7.3676 opls-116      1 RES       -0.847600
    2366 HW1         14.7199    21.1620     7.7314 opls-117      1 RES        0.423800
    2367 HW2         13.5604    22.2559     8.0858 opls-117      1 RES        0.423800
    2368 OW          19.6892    20.9042     8.1721 opls-116      1 RES       -0.847600
    2369 HW1         20.3132    20.2499     7.7449 opls-117      1 RES        0.423800
    2370 HW2         18.7808    20.4943     8.2532 opls-117      1 RES        0.423800
    2371 OW           6.7657     2.6450     9.5837 opls-116      1 RES       -0.847600
    2372 HW1          7.7650     2.6076     9.5835 opls-117      1 RES        0.423800
    2373 HW2          6.4678     3.5996     9.5754 opls-117      1 RES        0.423800
    2374 OW          27.7382     9.8844     7.4462 opls-116      1 RES       -0.847600
    2375 HW1         28.6882     9.6060     7.3048 opls-117      1 RES        0.423800
    2376 HW2         27.1729     9.5308     6.7009 opls-117      1 RES        0.423800
    2377 OW          25.3486     2.6263    19.3871 opls-116      1 RES       -0.847600
    2378 HW1         26.1153     1.9887    19.4627 opls-117      1 RES        0.423800
    2379 HW2         25.6337     3.5298    19.7073 opls-117      1 RES        0.423800
    2380 OW           5.0094     7.8580     2.9992 opls-116      1 RES       -0.847600
    2381 HW1          5.5075     8.5916     2.5368 opls-117      1 RES        0.423800
    2382 HW2          5.1246     7.9490     3.9884 opls-117      1 RES        0.423800
    2383 OW          15.2175     8.5905     7.9426 opls-116      1 RES       -0.847600
    2384 HW1         16.2139     8.5111     7.9712 opls-117      1 RES        0.423800
    2385 HW2         14.9192     9.2818     8.6007 opls-117      1 RES        0.423800
    2386 OW          26.5133    26.4100    28.8465 opls-116      1 RES       -0.847600
    2387 HW1         27.4519    26.2979    28.5200 opls-117      1 RES        0.423800
    2388 HW2         26.1197    25.5122    29.0441 opls-117      1 RES        0.423800
    2389 OW          16.3056    29.2529    24.3963 opls-116      1 RES       -0.847600
    2390 HW1         15.3934    28.8725    24.2443 opls-117      1 RES        0.423800
    2391 HW2         16.9694    28.5084    24.4688 opls-117      1 RES        0.423800
    2392 OW          29.6666    11.0801    25.0890 opls-116      1 RES       -0.847600
    2393 HW1         30.0514    10.2632    25.5188 opls-117      1 RES        0.423800
    2394 HW2         29.4162    11.7419    25.7955 opls-117      1 RES        0.423800
    2395 OW           9.4930    28.0385     2.4028 opls-116      1 RES       -0.847600
    2396 HW1         10.4734    28.0273     2.5995 opls-117      1 RES        0.423800
    2397 HW2          9.0073    27.5098     3.0989 opls-117      1 RES        0.423800
    2398 OW          12.6600    28.1645     2.4017 opls-116      1 RES       -0.847600
    2399 HW1         12.7459    27.6029     3.2246 opls-117      1 RES        0.423800
    2400 HW2         13.5645    28.3071     1.9995 opls-117      1 RES        0.423800
    2401 OW          21.4842    16.7593    21.0669 opls-116      1 RES       -0.847600
    2402 HW1         20.5464    16.9565    20.7810 opls-117      1 RES        0.423800
    2403 HW2         21.7910    15.9088    20.6397 opls-117      1 RES        0.423800
    2404 OW           9.8456    26.1713    25.1899 opls-116      1 RES       -0.847600
    2405 HW1         10.7706    25.8070    25.2975 opls-117      1 RES        0.423800
    2406 HW2          9.2004    25.4153    25.0793 opls-117      1 RES        0.423800
    2407 OW           7.3901    17.0460    23.2328 opls-116      1 RES       -0.847600
    2408 HW1          7.3250    17.9935    23.5459 opls-117      1 RES        0.423800
    2409 HW2          7.4009    17.0254    22.2331 opls-117      1 RES        0.423800
    2410 OW          29.4815     7.8333     5.7255 opls-116      1 RES       -0.847600
    2411 HW1         30.0387     7.0085     5.6289 opls-117      1 RES        0.423800
    2412 HW2         30.0746     8.6161     5.9138 opls-117      1 RES        0.423800
    2413 OW          21.6850    28.1751    29.3031 opls-116      1 RES       -0.847600
    2414 HW1         21.4961    29.0972    28.9654 opls-117      1 RES        0.423800
    2415 HW2         21.0760    27.9694    30.0691 opls-117      1 RES        0.423800
    2416 OW           8.9964    15.8354    14.4874 opls-116      1 RES       -0.847600
    2417 HW1          8.6135    14.9309    14.2996 opls-117      1 RES        0.423800
    2418 HW2          9.0384    16.3623    13.6385 opls-117      1 RES        0.423800
    2419 OW           7.0003    25.2708    17.0237 opls-116      1 RES       -0.847600
    2420 HW1          7.7078    24.5707    17.1201 opls-117      1 RES        0.423800
    2421 HW2          7.4293    26.1718    16.9602 opls-117      1 RES        0.423800
    2422 OW           3.6961    14.6117     3.5049 opls-116      1 RES       -0.847600
    2423 HW1          3.9295    15.5631     3.3038 opls-117      1 RES        0.423800
    2424 HW2          2.7082    14.5319     3.6379 opls-117      1 RES        0.423800
    2425 OW          15.3085    29.4541     2.6933 opls-116      1 RES       -0.847600
    2426 HW1         14.9254    30.0700     2.0049 opls-117      1 RES        0.423800
    2427 HW2         15.6682    29.9903     3.4569 opls-117      1 RES        0.423800
    2428 OW          13.2455     1.9840    29.5414 opls-116      1 RES       -0.847600
    2429 HW1         13.3071     2.8387    30.0570 opls-117      1 RES        0.423800
    2430 HW2         12.4312     2.0027    28.9613 opls-117      1 RES        0.423800
    2431 OW           9.7655    18.9630    19.1152 opls-116      1 RES       -0.847600
    2432 HW1          9.8100    19.1950    20.0868 opls-117      1 RES        0.423800
    2433 HW2          9.8826    19.7923    18.5687 opls-117      1 RES        0.423800
    2434 OW          20.9111     2.7051    29.1556 opls-116      1 RES       -0.847600
    2435 HW1         20.5972     2.4369    30.0663 opls-117      1 RES        0.423800
    2436 HW2         21.5183     1.9992    28.7910 opls-117      1 RES        0.423800
    2437 OW           6.6944    15.4401    15.7726 opls-116      1 RES       -0.847600
    2438 HW1          7.5575    15.1901    16.2115 opls-117      1 RES        0.423800
    2439 HW2          6.8748    16.0699    15.0171 opls-117      1 RES        0.423800
    2440 OW          24.6974    19.6269    10.9709 opls-116      1 RES       -0.847600
    2441 HW1         24.0327    20.3724    10.9222 opls-117      1 RES        0.423800
    2442 HW2         24.2149    18.7516    11.0013 opls-117      1 RES        0.423800
    2443 OW          29.1938     9.3694    23.6629 opls-116      1 RES       -0.847600
    2444 HW1         29.2091     8.3786    23.5289 opls-117      1 RES        0.423800
    2445 HW2         30.0700     9.7579    23.3778 opls-117      1 RES        0.423800
    2446 OW          17.2985    17.1099    16.3259 opls-116      1 RES       -0.847600
    2447 HW1         17.2240    16.9166    15.3476 opls-117      1 RES        0.423800
    2448 HW2         18.2239    16.8957    16.6385 opls-117      1 RES        0.423800
    2449 OW           4.2366    15.6397    24.6256 opls-116      1 RES       -0.847600
    2450 HW1          4.1196    15.0814    25.4470 opls-117      1 RES        0.423800
    2451 HW2          4.0176    16.5924    24.8363 opls-117      1 RES        0.423800
    2452 OW          12.1370    23.4103    10.0323 opls-116      1 RES       -0.847600
    2453 HW1         11.6538    22.5358     9.9920 opls-117      1 RES        0.423800
    2454 HW2         13.1234    23.2460    10.0424 opls-117      1 RES        0.423800
    2455 OW           7.4048    23.4693    11.8478 opls-116      1 RES       -0.847600
    2456 HW1          8.0496    23.9551    12.4380 opls-117      1 RES        0.423800
    2457 HW2          7.6610    22.5039    11.7979 opls-117      1 RES        0.423800
    2458 OW          24.0598    10.1257    19.1784 opls-116      1 RES       -0.847600
    2459 HW1         24.8813    10.6902    19.0968 opls-117      1 RES        0.423800
    2460 HW2         24.0115     9.7386    20.0992 opls-117      1 RES        0.423800
    2461 OW          14.7777    21.3310    14.2975 opls-116      1 RES       -0.847600
    2462 HW1         14.9075    20.3523    14.1382 opls-117      1 RES        0.423800
    2463 HW2         15.2843    21.6058    15.1147 opls-117      1 RES        0.423800
    2464 OW          15.9069    13.5700    13.1348 opls-116      1 RES       -0.847600
    2465 HW1         15.1077    13.7759    13.6995 opls-117      1 RES        0.423800
    2466 HW2         16.6058    13.1261    13.6956 opls-117      1 RES        0.423800
    2467 OW           8.7456    20.6487    24.4777 opls-116      1 RES       -0.847600
    2468 HW1          8.3260    19.7442    24.4016 opls-117      1 RES        0.423800
    2469 HW2          9.5790    20.5845    25.0266 opls-117      1 RES        0.423800
    2470 OW           9.6239     3.6368     4.2748 opls-116      1 RES       -0.847600
    2471 HW1         10.3607     3.0164     4.0061 opls-117      1 RES        0.423800
    2472 HW2         10.0149     4.4993     4.5960 opls-117      1 RES        0.423800
    2473 OW          27.5209     8.6408    29.6479 opls-116      1 RES       -0.847600
    2474 HW1         26.6316     8.4799    30.0759 opls-117      1 RES        0.423800
    2475 HW2         28.1501     7.9057    29.9001 opls-117      1 RES        0.423800
    2476 OW          15.6384    11.3648    20.6762 opls-116      1 RES       -0.847600
    2477 HW1         16.2774    10.9115    21.2977 opls-117      1 RES        0.423800
    2478 HW2         14.9291    10.7176    20.3970 opls-117      1 RES        0.423800
    2479 OW          24.4766    24.6708     9.5209 opls-116      1 RES       -0.847600
    2480 HW1         24.7252    25.4003    10.1580 opls-117      1 RES        0.423800
    2481 HW2         25.0484    23.8687     9.6930 opls-117      1 RES        0.423800
    2482 OW           9.6781    16.5545    22.7361 opls-116      1 RES       -0.847600
    2483 HW1          9.5577    16.8556    23.6821 opls-117      1 RES        0.423800
    2484 HW2          9.5134    15.5699    22.6762 opls-117      1 RES        0.423800
    2485 OW          12.0649    21.6624    17.7007 opls-116      1 RES       -0.847600
    2486 HW1         12.1870    22.6535    17.6478 opls-117      1 RES        0.423800
    2487 HW2         11.1100    21.4337    17.5114 opls-117      1 RES        0.423800
    2488 OW          22.8209    29.2361    17.1930 opls-116      1 RES       -0.847600
    2489 HW1         22.2791    30.0706    17.0923 opls-117      1 RES        0.423800
    2490 HW2         23.0847    28.8990    16.2892 opls-117      1 RES        0.423800
    2491 OW          27.1872     3.7485     8.4995 opls-116      1 RES       -0.847600
    2492 HW1         26.6649     4.4536     8.9790 opls-117      1 RES        0.423800
    2493 HW2         27.4836     3.0513     9.1524 opls-117      1 RES        0.423800
    2494 OW           7.6700    10.6031    11.9100 opls-116      1 RES       -0.847600
    2495 HW1          8.1810    11.4535    12.0355 opls-117      1 RES        0.423800
    2496 HW2          8.0700     9.8865    12.4813 opls-117      1 RES        0.423800
    2497 OW          16.9847    11.3609    29.5224 opls-116      1 RES       -0.847600
    2498 HW1         17.0831    11.7185    28.5937 opls-117      1 RES        0.423800
    2499 HW2         16.0381    11.0744    29.6707 opls-117      1 RES        0.423800
    2500 OW          13.2712    12.4741    15.7447 opls-116      1 RES       -0.847600
    2501 HW1         12.2756    12.4223    15.8238 opls-117      1 RES        0.423800
    2502 HW2         13.5181    12.7397    14.8128 opls-117      1 RES        0.423800
    2503 OW           2.9132    22.1681    20.8514 opls-116      1 RES       -0.847600
    2504 HW1          1.9645    22.1301    20.5375 opls-117      1 RES        0.423800
    2505 HW2          3.4419    21.4479    20.4023 opls-117      1 RES        0.423800
    2506 OW          27.6905    19.8068    20.3384 opls-116      1 RES       -0.847600
    2507 HW1         28.0938    18.8928    20.3828 opls-117      1 RES        0.423800
    2508 HW2         26.7002    19.7289    20.2227 opls-117      1 RES        0.423800
    2509 OW          25.4091    13.2360     9.2950 opls-116      1 RES       -0.847600
    2510 HW1         24.6389    13.8706     9.3586 opls-117      1 RES        0.423800
    2511 HW2         26.1569    13.5602     9.8744 opls-117      1 RES        0.423800
    2512 OW          26.6619    19.9235    13.0051 opls-116      1 RES       -0.847600
    2513 HW1         26.0293    19.2227    12.6754 opls-117      1 RES        0.423800
    2514 HW2         26.2739    20.3700    13.8113 opls-117      1 RES        0.423800
    2515 OW          28.6244    20.7905    12.4785 opls-116      1 RES       -0.847600
    2516 HW1         28.0565    21.6059    12.5910 opls-117      1 RES        0.423800
    2517 HW2         29.5870    21.0364    12.5926 opls-117      1 RES        0.423800
    2518 OW           6.7874    12.0898    30.1268 opls-116      1 RES       -0.847600
    2519 HW1          6.4225    12.3990    29.2486 opls-117      1 RES        0.423800
    2520 HW2          7.5975    11.5246    29.9708 opls-117      1 RES        0.423800
    2521 OW           9.2594     7.1401    25.1354 opls-116      1 RES       -0.847600
    2522 HW1          8.6017     6.4031    24.9800 opls-117      1 RES        0.423800
    2523 HW2         10.0443     7.0202    24.5275 opls-117      1 RES        0.423800
    2524 OW          16.8557    15.6173     4.8454 opls-116      1 RES       -0.847600
    2525 HW1         15.8838    15.8301     4.7447 opls-117      1 RES        0.423800
    2526 HW2         17.3421    16.4273     5.1732 opls-117      1 RES        0.423800
    2527 OW          21.3713    13.8111    21.1483 opls-116      1 RES       -0.847600
    2528 HW1         20.6532    13.7675    20.4538 opls-117      1 RES        0.423800
    2529 HW2         20.9927    13.5492    22.0361 opls-117      1 RES        0.423800
    2530 OW          19.3294    10.0792    13.7686 opls-116      1 RES       -0.847600
    2531 HW1         18.4184    10.4261    13.5457 opls-117      1 RES        0.423800
    2532 HW2         19.9900    10.8290    13.7313 opls-117      1 RES        0.423800
    2533 OW          11.5687    23.1892    29.3826 opls-116      1 RES       -0.847600
    2534 HW1         11.1984    22.5822    30.0857 opls-117      1 RES        0.423800
    2535 HW2         10.8889    23.3164    28.6603 opls-117      1 RES        0.423800
    2536 OW          25.1165    29.4249    24.4804 opls-116      1 RES       -0.847600
    2537 HW1         25.5267    30.0710    23.8368 opls-117      1 RES        0.423800
    2538 HW2         25.6504    28.5794    24.4897 opls-117      1 RES        0.423800
    2539 OW          24.7484    11.1350     4.8626 opls-116      1 RES       -0.847600
    2540 HW1         24.9097    11.4587     3.9303 opls-117      1 RES        0.423800
    2541 HW2         25.5556    11.3187     5.4236 opls-117      1 RES        0.423800
    2542 OW          15.7941     6.1752    18.6844 opls-116      1 RES       -0.847600
    2543 HW1         15.2297     6.7214    18.0654 opls-117      1 RES        0.423800
    2544 HW2         15.5470     6.3824    19.6310 opls-117      1 RES        0.423800
    2545 OW           3.4960    14.7053    12.8942 opls-116      1 RES       -0.847600
    2546 HW1          2.6007    14.2720    12.9978 opls-117      1 RES        0.423800
    2547 HW2          4.2027    14.0003    12.8351 opls-117      1 RES        0.423800
    2548 OW          16.3764     5.9060    24.3297 opls-116      1 RES       -0.847600
    2549 HW1         15.8261     5.0711    24.3388 opls-117      1 RES        0.423800
    2550 HW2         17.3418     5.6677    24.2241 opls-117      1 RES        0.423800
    2551 OW          16.4493    24.8428    30.0718 opls-116      1 RES       -0.847600
    2552 HW1         17.4104    25.1187    30.0839 opls-117      1 RES        0.423800
    2553 HW2         16.3893    23.8457    30.0246 opls-117      1 RES        0.423800
    2554 OW          18.9737     9.0628    18.0114 opls-116      1 RES       -0.847600
    2555 HW1         18.1516     8.4935    18.0246 opls-117      1 RES        0.423800
    2556 HW2         18.7151    10.0184    17.8704 opls-117      1 RES        0.423800
    2557 OW           4.9479     2.6827    19.1345 opls-116      1 RES       -0.847600
    2558 HW1          5.0675     3.6361    18.8575 opls-117      1 RES        0.423800
    2559 HW2          5.8436     2.2653    19.2877 opls-117      1 RES        0.423800
    2560 OW          10.8926    21.4998    20.1924 opls-116      1 RES       -0.847600
    2561 HW1         11.4926    20.8874    19.6776 opls-117      1 RES        0.423800
    2562 HW2         10.7064    22.3184    19.6490 opls-117      1 RES        0.423800
    2563 OW          10.0647     8.4719    12.9870 opls-116      1 RES       -0.847600
    2564 HW1         10.9731     8.0603    12.9139 opls-117      1 RES        0.423800
    2565 HW2         10.1532     9.4660    13.0493 opls-117      1 RES        0.423800
    2566 OW          13.5257    24.3079    25.6880 opls-116      1 RES       -0.847600
    2567 HW1         13.1323    25.1714    25.3724 opls-117      1 RES        0.423800
    2568 HW2         14.4522    24.4684    26.0283 opls-117      1 RES        0.423800
    2569 OW          22.8583     9.3671     4.5007 opls-116      1 RES       -0.847600
    2570 HW1         22.1447     9.9602     4.1278 opls-117      1 RES        0.423800
    2571 HW2         22.4496     8.5093     4.8125 opls-117      1 RES        0.423800
    2572 OW          13.6606    15.3343    29.2924 opls-116      1 RES       -0.847600
    2573 HW1         12.6853    15.1594    29.1582 opls-117      1 RES        0.423800
    2574 HW2         14.1791    14.9249    28.5418 opls-117      1 RES        0.423800
    2575 OW          17.6839     8.2627     1.9963 opls-116      1 RES       -0.847600
    2576 HW1         17.7955     7.2689     1.9992 opls-117      1 RES        0.423800
    2577 HW2         18.5836     8.6991     1.9951 opls-117      1 RES        0.423800
    2578 OW          11.9286    18.2141    25.0682 opls-116      1 RES       -0.847600
    2579 HW1         12.6587    18.8139    24.7407 opls-117      1 RES        0.423800
    2580 HW2         11.1387    18.2873    24.4594 opls-117      1 RES        0.423800
    2581 OW          18.5902     3.3429    10.7914 opls-116      1 RES       -0.847600
    2582 HW1         18.7665     3.6933    11.7112 opls-117      1 RES        0.423800
    2583 HW2         17.6364     3.0504    10.7232 opls-117      1 RES        0.423800
    2584 OW          29.4545    13.9411    25.8275 opls-116      1 RES       -0.847600
    2585 HW1         28.4877    13.7350    25.6761 opls-117      1 RES        0.423800
    2586 HW2         29.5795    14.9317    25.8823 opls-117      1 RES        0.423800
    2587 OW           2.7560     9.1512     5.8093 opls-116      1 RES       -0.847600
    2588 HW1          1.9994     8.6224     6.1939 opls-117      1 RES        0.423800
    2589 HW2          2.7041    10.0944     6.1374 opls-117      1 RES        0.423800
    2590 OW          15.7890     2.4018    14.6276 opls-116      1 RES       -0.847600
    2591 HW1         14.8879     1.9930    14.4834 opls-117      1 RES        0.423800
    2592 HW2         15.7100     3.3985    14.6070 opls-117      1 RES        0.423800
    2593 OW          25.0031    27.8726    22.0742 opls-116      1 RES       -0.847600
    2594 HW1         24.7218    28.8219    22.2148 opls-117      1 RES        0.423800
    2595 HW2         24.2571    27.2613    22.3385 opls-117      1 RES        0.423800
    2596 OW          30.0855     8.8622    18.3755 opls-116      1 RES       -0.847600
    2597 HW1         30.0262     8.1677    17.6584 opls-117      1 RES        0.423800
    2598 HW2         30.0621     9.7720    17.9612 opls-117      1 RES        0.423800
    2599 OW          12.1169    24.2845    20.3260 opls-116      1 RES       -0.847600
    2600 HW1         11.3974    23.9638    20.9420 opls-117      1 RES        0.423800
    2601 HW2         12.5465    23.5002    19.8784 opls-117      1 RES        0.423800
    2602 OW           6.4980    11.0421    10.1011 opls-116      1 RES       -0.847600
    2603 HW1          6.7236    10.0734     9.9969 opls-117      1 RES        0.423800
    2604 HW2          5.7379    11.2745     9.4942 opls-117      1 RES        0.423800
    2605 OW           8.0105    23.4006    20.1264 opls-116      1 RES       -0.847600
    2606 HW1          7.3719    23.9374    19.5751 opls-117      1 RES        0.423800
    2607 HW2          8.9486    23.6230    19.8609 opls-117      1 RES        0.423800
    2608 OW          22.5356    13.5804    11.4874 opls-116      1 RES       -0.847600
    2609 HW1         22.5555    14.5602    11.6864 opls-117      1 RES        0.423800
    2610 HW2         23.4708    13.2282    11.4530 opls-117      1 RES        0.423800
    2611 OW           1.9809     4.8438    12.7868 opls-116      1 RES       -0.847600
    2612 HW1          2.1178     3.8920    12.5124 opls-117      1 RES        0.423800
    2613 HW2          2.8692     5.2885    12.9018 opls-117      1 RES        0.423800
    2614 OW           9.9204    21.7140     2.3522 opls-116      1 RES       -0.847600
    2615 HW1         10.6003    21.3487     2.9881 opls-117      1 RES        0.423800
    2616 HW2          9.3593    20.9658     1.9982 opls-117      1 RES        0.423800
    2617 OW           9.1292    21.0385    10.9294 opls-116      1 RES       -0.847600
    2618 HW1         10.0359    21.4517    11.0138 opls-117      1 RES        0.423800
    2619 HW2          8.6517    21.4392    10.1475 opls-117      1 RES        0.423800
    2620 OW          20.1899     2.4419     6.6002 opls-116      1 RES       -0.847600
    2621 HW1         19.7177     3.2971     6.8138 opls-117      1 RES        0.423800
    2622 HW2         20.4892     2.0055     7.4487 opls-117      1 RES        0.423800
    2623 OW          19.9991    16.6573    24.5379 opls-116      1 RES       -0.847600
    2624 HW1         19.4464    16.3891    23.7489 opls-117      1 RES        0.423800
    2625 HW2         20.0205    15.9081    25.2000 opls-117      1 RES        0.423800
    2626 OW           3.4834    11.4139    13.1379 opls-116      1 RES       -0.847600
    2627 HW1          4.3938    11.8275    13.1221 opls-117      1 RES        0.423800
    2628 HW2          2.8040    12.1122    13.3633 opls-117      1 RES        0.423800
    2629 OW          11.0733     6.8996    14.9795 opls-116      1 RES       -0.847600
    2630 HW1         11.7527     6.5651    14.3265 opls-117      1 RES        0.423800
    2631 HW2         11.0394     6.2864    15.7688 opls-117      1 RES        0.423800
    2632 OW          10.3530    17.8451    11.8862 opls-116      1 RES       -0.847600
    2633 HW1          9.4604    18.2823    11.7764 opls-117      1 RES        0.423800
    2634 HW2         10.2423    16.8514    11.8643 opls-117      1 RES        0.423800
    2635 OW           8.4168    28.3158    26.9961 opls-116      1 RES       -0.847600
    2636 HW1          8.8524    27.8307    26.2379 opls-117      1 RES        0.423800
    2637 HW2          8.7086    27.9107    27.8625 opls-117      1 RES        0.423800
    2638 OW           3.6118    25.1897     4.8411 opls-116      1 RES       -0.847600
    2639 HW1          2.7246    25.2856     5.2925 opls-117      1 RES        0.423800
    2640 HW2          4.2732    24.8045     5.4847 opls-117      1 RES        0.423800
    2641 OW          17.2272    25.9986    25.8734 opls-116      1 RES       -0.847600
    2642 HW1         17.7025    26.8048    26.2257 opls-117      1 RES        0.423800
    2643 HW2         16.2394    26.1353    25.9469 opls-117      1 RES        0.423800
    2644 OW           9.7575    13.4245    18.3520 opls-116      1 RES       -0.847600
    2645 HW1         10.1014    14.0697    19.0342 opls-117      1 RES        0.423800
    2646 HW2          8.9822    13.8316    17.8691 opls-117      1 RES        0.423800
    2647 OW          21.5707     8.2973     2.8074 opls-116      1 RES       -0.847600
    2648 HW1         21.9274     7.8288     1.9991 opls-117      1 RES        0.423800
    2649 HW2         20.7850     8.8587     2.5477 opls-117      1 RES        0.423800
    2650 OW          29.2051    29.7575    25.1018 opls-116      1 RES       -0.847600
    2651 HW1         28.3079    30.0701    25.4138 opls-117      1 RES        0.423800
    2652 HW2         29.2485    28.7600    25.1575 opls-117      1 RES        0.423800
    2653 OW           3.7621    20.0130    14.9599 opls-116      1 RES       -0.847600
    2654 HW1          4.1303    20.9281    15.1242 opls-117      1 RES        0.423800
    2655 HW2          3.2193    20.0179    14.1201 opls-117      1 RES        0.423800
    2656 OW          20.5456    29.6835    13.1565 opls-116      1 RES       -0.847600
    2657 HW1         20.6031    28.8354    12.6298 opls-117      1 RES        0.423800
    2658 HW2         21.4574    30.0848    13.2426 opls-117      1 RES        0.423800
    2659 OW          21.2663     6.8149    28.4724 opls-116      1 RES       -0.847600
    2660 HW1         21.6737     6.5712    29.3525 opls-117      1 RES        0.423800
    2661 HW2         21.9909     6.9631    27.7993 opls-117      1 RES        0.423800
    2662 OW          25.7603     6.6740    10.6579 opls-116      1 RES       -0.847600
    2663 HW1         25.1477     7.4633    10.6179 opls-117      1 RES        0.423800
    2664 HW2         25.3312     5.8955    10.1998 opls-117      1 RES        0.423800
    2665 OW           7.2624     9.3334    19.5044 opls-116      1 RES       -0.847600
    2666 HW1          7.9543     8.6570    19.7569 opls-117      1 RES        0.423800
    2667 HW2          7.1795     9.3696    18.5085 opls-117      1 RES        0.423800
    2668 OW          16.4477    21.9446     9.2480 opls-116      1 RES       -0.847600
    2669 HW1         17.1442    22.0434     9.9587 opls-117      1 RES        0.423800
    2670 HW2         16.7455    21.2604     8.5823 opls-117      1 RES        0.423800
    2671 OW          28.1953     9.5251     9.8090 opls-116      1 RES       -0.847600
    2672 HW1         28.8231     8.9794    10.3640 opls-117      1 RES        0.423800
    2673 HW2         27.4965     8.9293     9.4131 opls-117      1 RES        0.423800
    2674 OW          26.1603    14.8852     7.0930 opls-116      1 RES       -0.847600
    2675 HW1         26.6909    14.5229     6.3268 opls-117      1 RES        0.423800
    2676 HW2         25.3078    15.2805     6.7508 opls-117      1 RES        0.423800
    2677 OW          20.1475    26.0183    21.9197 opls-116      1 RES       -0.847600
    2678 HW1         19.9362    25.3902    22.6685 opls-117      1 RES        0.423800
    2679 HW2         20.9194    26.5987    22.1792 opls-117      1 RES        0.423800
    2680 OW           5.0937    21.4115    22.6034 opls-116      1 RES       -0.847600
    2681 HW1          4.6854    22.2060    22.1539 opls-117      1 RES        0.423800
    2682 HW2          5.5874    21.7082    23.4209 opls-117      1 RES        0.423800
    2683 OW          14.8678    29.5342     7.9605 opls-116      1 RES       -0.847600
    2684 HW1         14.2793    30.0788     7.3630 opls-117      1 RES        0.423800
    2685 HW2         15.6646    30.0762     8.2276 opls-117      1 RES        0.423800
    2686 OW          22.7918     5.9199     6.6498 opls-116      1 RES       -0.847600
    2687 HW1         23.1600     6.6768     6.1098 opls-117      1 RES        0.423800
    2688 HW2         23.1626     5.0560     6.3090 opls-117      1 RES        0.423800
    2689 OW          29.3165    11.5088     5.7972 opls-116      1 RES       -0.847600
    2690 HW1         28.4312    11.0604     5.6743 opls-117      1 RES        0.423800
    2691 HW2         30.0290    10.8156     5.9063 opls-117      1 RES        0.423800
    2692 OW          15.6887     3.2942    22.6066 opls-116      1 RES       -0.847600
    2693 HW1         16.4551     3.9351    22.5637 opls-117      1 RES        0.423800
    2694 HW2         14.8277     3.8026    22.5880 opls-117      1 RES        0.423800
    2695 OW          21.4898    26.0384    24.9524 opls-116      1 RES       -0.847600
    2696 HW1         20.8770    26.0308    25.7426 opls-117      1 RES        0.423800
    2697 HW2         21.2426    26.7944    24.3463 opls-117      1 RES        0.423800
    2698 OW          19.5006     7.3984    24.3898 opls-116      1 RES       -0.847600
    2699 HW1         18.6516     7.8244    24.7024 opls-117      1 RES        0.423800
    2700 HW2         19.4056     6.4034    24.4213 opls-117      1 RES        0.423800
    2701 OW          18.7006    23.9573     5.3594 opls-116      1 RES       -0.847600
    2702 HW1         18.3296    24.8377     5.6550 opls-117      1 RES        0.423800
    2703 HW2         19.5705    24.1034     4.8884 opls-117      1 RES        0.423800
    2704 OW           9.1779    25.5388    13.4653 opls-116      1 RES       -0.847600
    2705 HW1          9.7600    26.1504    12.9295 opls-117      1 RES        0.423800
    2706 HW2          9.7137    25.1319    14.2051 opls-117      1 RES        0.423800
    2707 OW          25.5109    26.4252    13.7942 opls-116      1 RES       -0.847600
    2708 HW1         26.4987    26.5774    13.7635 opls-117      1 RES        0.423800
    2709 HW2         25.0360    27.3021    13.7194 opls-117      1 RES        0.423800
    2710 OW          25.6242    17.5294    21.5818 opls-116      1 RES       -0.847600
    2711 HW1         25.1862    18.4134    21.7453 opls-117      1 RES        0.423800
    2712 HW2         26.5617    17.5526    21.9291 opls-117      1 RES        0.423800
    2713 OW          29.1111     6.0355    23.9153 opls-116      1 RES       -0.847600
    2714 HW1         28.2618     6.2002    24.4169 opls-117      1 RES        0.423800
    2715 HW2         29.8668     5.9368    24.5627 opls-117      1 RES        0.423800
    2716 OW          23.7569     7.1502    29.7574 opls-116      1 RES       -0.847600
    2717 HW1         23.8339     6.5838    28.9369 opls-117      1 RES        0.423800
    2718 HW2         23.7148     8.1140    29.4943 opls-117      1 RES        0.423800
    2719 OW          19.3197    29.6366     4.7705 opls-116      1 RES       -0.847600
    2720 HW1         20.2089    30.0751     4.9008 opls-117      1 RES        0.423800
    2721 HW2         19.3718    28.6827     5.0660 opls-117      1 RES        0.423800
    2722 OW           3.1690    17.8731    19.9310 opls-116      1 RES       -0.847600
    2723 HW1          2.2042    17.9099    20.1912 opls-117      1 RES        0.423800
    2724 HW2          3.5838    18.7738    20.0602 opls-117      1 RES        0.423800
    2725 OW          20.0760    26.5647     6.9868 opls-116      1 RES       -0.847600
    2726 HW1         19.1151    26.8403     7.0147 opls-117      1 RES        0.423800
    2727 HW2         20.1804    25.7814     6.3739 opls-117      1 RES        0.423800
    2728 OW          17.8072    30.1235    21.6484 opls-116      1 RES       -0.847600
    2729 HW1         16.9154    30.0214    22.0892 opls-117      1 RES        0.423800
    2730 HW2         17.8067    29.6321    20.7775 opls-117      1 RES        0.423800
    2731 OW          17.2052    22.4634    15.7551 opls-116      1 RES       -0.847600
    2732 HW1         18.0695    22.0365    16.0213 opls-117      1 RES        0.423800
    2733 HW2         17.3867    23.3609    15.3532 opls-117      1 RES        0.423800
    2734 OW           7.2807     7.3439    26.4653 opls-116      1 RES       -0.847600
    2735 HW1          7.9199     8.0969    26.6212 opls-117      1 RES        0.423800
    2736 HW2          6.3587     7.6298    26.7267 opls-117      1 RES        0.423800
    2737 OW          10.8021    23.2328    13.2091 opls-116      1 RES       -0.847600
    2738 HW1          9.8440    22.9462    13.2124 opls-117      1 RES        0.423800
    2739 HW2         11.0817    23.4502    12.2739 opls-117      1 RES        0.423800
    2740 OW          12.8066     6.9177    30.0405 opls-116      1 RES       -0.847600
    2741 HW1         13.1003     7.8730    30.0064 opls-117      1 RES        0.423800
    2742 HW2         11.8082     6.8772    30.0801 opls-117      1 RES        0.423800
    2743 OW          24.1688    16.1787    29.7752 opls-116      1 RES       -0.847600
    2744 HW1         23.2499    15.9328    29.4667 opls-117      1 RES        0.423800
    2745 HW2         24.8404    15.5914    29.3235 opls-117      1 RES        0.423800
    2746 OW           4.9092    12.5886    19.0655 opls-116      1 RES       -0.847600
    2747 HW1          4.3150    13.1263    19.6638 opls-117      1 RES        0.423800
    2748 HW2          5.7821    12.4228    19.5244 opls-117      1 RES        0.423800
    2749 OW          14.2707    19.1577    28.6919 opls-116      1 RES       -0.847600
    2750 HW1         14.3711    18.3125    28.1668 opls-117      1 RES        0.423800
    2751 HW2         13.5838    19.7403    28.2575 opls-117      1 RES        0.423800
    2752 OW          13.7228     2.4393     7.4330 opls-116      1 RES       -0.847600
    2753 HW1         12.8752     2.9509     7.5742 opls-117      1 RES        0.423800
    2754 HW2         13.9930     1.9992     8.2893 opls-117      1 RES        0.423800
    2755 OW          11.3050     3.6008    23.8783 opls-116      1 RES       -0.847600
    2756 HW1         11.2739     4.6002    23.8915 opls-117      1 RES        0.423800
    2757 HW2         12.2576     3.2968    23.8877 opls-117      1 RES        0.423800
    2758 OW          28.8155    25.9239    25.7769 opls-116      1 RES       -0.847600
    2759 HW1         29.4901    26.6621    25.7742 opls-117      1 RES        0.423800
    2760 HW2         28.5676    25.7024    26.7200 opls-117      1 RES        0.423800
    2761 OW          14.5999    23.9684    20.5118 opls-116      1 RES       -0.847600
    2762 HW1         15.2551    23.6410    19.8310 opls-117      1 RES        0.423800
    2763 HW2         14.2409    24.8576    20.2284 opls-117      1 RES        0.423800
    2764 OW          26.1036    16.7363     5.3069 opls-116      1 RES       -0.847600
    2765 HW1         25.5099    17.2308     4.6721 opls-117      1 RES        0.423800
    2766 HW2         26.7200    16.1408     4.7916 opls-117      1 RES        0.423800
    2767 OW           6.0235    17.5541    20.5628 opls-116      1 RES       -0.847600
    2768 HW1          5.0964    17.2589    20.7940 opls-117      1 RES        0.423800
    2769 HW2          6.3325    17.0712    19.7434 opls-117      1 RES        0.423800
    2770 OW           3.8316    10.3462    20.0505 opls-116      1 RES       -0.847600
    2771 HW1          3.3078    11.1934    19.9619 opls-117      1 RES        0.423800
    2772 HW2          4.7541    10.4854    19.6904 opls-117      1 RES        0.423800
    2773 OW          11.2804    16.6069     3.3009 opls-116      1 RES       -0.847600
    2774 HW1         10.6951    16.3191     2.5429 opls-117      1 RES        0.423800
    2775 HW2         11.6104    17.5359     3.1330 opls-117      1 RES        0.423800
    2776 OW           2.4918    27.3723     7.3965 opls-116      1 RES       -0.847600
    2777 HW1          1.9999    26.7156     6.8249 opls-117      1 RES        0.423800
    2778 HW2          1.9999    28.2430     7.4025 opls-117      1 RES        0.423800
    2779 OW           5.3541    13.8995     4.7637 opls-116      1 RES       -0.847600
    2780 HW1          5.7966    13.0030     4.7845 opls-117      1 RES        0.423800
    2781 HW2          5.8121    14.4818     4.0919 opls-117      1 RES        0.423800
    2782 OW           5.8516     9.5893    14.3186 opls-116      1 RES       -0.847600
    2783 HW1          5.6170     8.6180    14.2794 opls-117      1 RES        0.423800
    2784 HW2          5.6099    10.0257    13.4519 opls-117      1 RES        0.423800
    2785 OW          18.1885    15.8230    12.1446 opls-116      1 RES       -0.847600
    2786 HW1         18.8432    15.1954    11.7233 opls-117      1 RES        0.423800
    2787 HW2         17.3001    15.3715    12.2278 opls-117      1 RES        0.423800
    2788 OW          20.8889    14.5574     4.2636 opls-116      1 RES       -0.847600
    2789 HW1         20.1030    14.7900     4.8365 opls-117      1 RES        0.423800
    2790 HW2         21.3359    13.7399     4.6269 opls-117      1 RES        0.423800
    2791 OW          20.4503    14.2306    16.1468 opls-116      1 RES       -0.847600
    2792 HW1         20.4263    13.2387    16.2708 opls-117      1 RES        0.423800
    2793 HW2         19.5190    14.5741    16.0257 opls-117      1 RES        0.423800
    2794 OW           6.8809    20.8633    25.6224 opls-116      1 RES       -0.847600
    2795 HW1          6.8470    21.7794    25.2228 opls-117      1 RES        0.423800
    2796 HW2          6.2996    20.2465    25.0918 opls-117      1 RES        0.423800
    2797 OW          21.0760    18.8312    26.8651 opls-116      1 RES       -0.847600
    2798 HW1         20.6000    18.6282    26.0094 opls-117      1 RES        0.423800
    2799 HW2         21.7524    18.1176    27.0476 opls-117      1 RES        0.423800
    2800 OW           9.0399    29.5002     4.0355 opls-116      1 RES       -0.847600
    2801 HW1          8.2229    30.0700     3.9474 opls-117      1 RES        0.423800
    2802 HW2          9.8163    30.0702     4.3044 opls-117      1 RES        0.423800
    2803 OW          12.6341     9.9464     4.6238 opls-116      1 RES       -0.847600
    2804 HW1         12.1832    10.2467     5.4643 opls-117      1 RES        0.423800
    2805 HW2         13.5639     9.6443     4.8340 opls-117      1 RES        0.423800
    2806 OW           6.4545     4.3548    21.5490 opls-116      1 RES       -0.847600
    2807 HW1          6.3300     4.1966    20.5695 opls-117      1 RES        0.423800
    2808 HW2          6.1993     3.5308    22.0549 opls-117      1 RES        0.423800
    2809 OW          17.1164     6.4129    16.9454 opls-116      1 RES       -0.847600
    2810 HW1         17.6890     7.0507    16.4302 opls-117      1 RES        0.423800
    2811 HW2         17.6984     5.7733    17.4475 opls-117      1 RES        0.423800
    2812 OW           2.1637    19.1240     8.7519 opls-116      1 RES       -0.847600
    2813 HW1          1.9976    19.9541     9.2842 opls-117      1 RES        0.423800
    2814 HW2          1.9893    19.3079     7.7845 opls-117      1 RES        0.423800
    2815 OW           5.5032     9.1848    16.4519 opls-116      1 RES       -0.847600
    2816 HW1          6.4550     9.4909    16.4360 opls-117      1 RES        0.423800
    2817 HW2          5.0106     9.6650    17.1777 opls-117      1 RES        0.423800
    2818 OW          14.7372    18.4236    26.0021 opls-116      1 RES       -0.847600
    2819 HW1         14.2402    19.2703    26.1921 opls-117      1 RES        0.423800
    2820 HW2         14.0908    17.6625    25.9485 opls-117      1 RES        0.423800
    2821 OW          22.6042     2.8365     5.6266 opls-116      1 RES       -0.847600
    2822 HW1         23.5636     2.5990     5.7786 opls-117      1 RES        0.423800
    2823 HW2         22.0640     1.9999     5.5360 opls-117      1 RES        0.423800
    2824 OW          12.2222     7.9348    22.8947 opls-116      1 RES       -0.847600
    2825 HW1         12.9971     7.6074    22.3541 opls-117      1 RES        0.423800
    2826 HW2         11.4921     7.2516    22.8784 opls-117      1 RES        0.423800
    2827 OW          10.5262    12.8085    20.7850 opls-116      1 RES       -0.847600
    2828 HW1         10.1343    11.9429    21.0967 opls-117      1 RES        0.423800
    2829 HW2         10.0821    13.5665    21.2627 opls-117      1 RES        0.423800
    2830 OW          11.1154    18.2695    21.5961 opls-116      1 RES       -0.847600
    2831 HW1         11.1247    17.6047    20.8491 opls-117      1 RES        0.423800
    2832 HW2         11.6668    17.9249    22.3558 opls-117      1 RES        0.423800
    2833 OW          22.8834    12.7080    15.9883 opls-116      1 RES       -0.847600
    2834 HW1         22.5531    13.6462    15.8859 opls-117      1 RES        0.423800
    2835 HW2         23.8832    12.7072    16.0109 opls-117      1 RES        0.423800
    2836 OW           7.4932    15.4613    20.6905 opls-116      1 RES       -0.847600
    2837 HW1          8.0909    14.8221    21.1744 opls-117      1 RES        0.423800
    2838 HW2          6.5829    15.0586    20.5941 opls-117      1 RES        0.423800
    2839 OW          22.9462    17.0950    22.8231 opls-116      1 RES       -0.847600
    2840 HW1         22.4179    16.2634    22.9943 opls-117      1 RES        0.423800
    2841 HW2         23.5538    16.9490    22.0423 opls-117      1 RES        0.423800
    2842 OW          11.7502    27.2197    20.8888 opls-116      1 RES       -0.847600
    2843 HW1         11.7784    28.2168    20.9598 opls-117      1 RES        0.423800
    2844 HW2         10.9077    26.9421    20.4271 opls-117      1 RES        0.423800
    2845 OW          27.3368    12.1371    26.9117 opls-116      1 RES       -0.847600
    2846 HW1         27.8391    12.7424    27.5291 opls-117      1 RES        0.423800
    2847 HW2         27.6701    11.2004    27.0191 opls-117      1 RES        0.423800
    2848 OW          14.7168    17.6340    13.0273 opls-116      1 RES       -0.847600
    2849 HW1         14.5295    18.2088    13.8238 opls-117      1 RES        0.423800
    2850 HW2         13.9098    17.0820    12.8174 opls-117      1 RES        0.423800
    2851 OW          11.7485     4.3660     5.9724 opls-116      1 RES       -0.847600
    2852 HW1         11.6781     3.3995     5.7254 opls-117      1 RES        0.423800
    2853 HW2         11.4486     4.4911     6.9181 opls-117      1 RES        0.423800
    2854 OW          22.6085     5.5682    22.1694 opls-116      1 RES       -0.847600
    2855 HW1         23.1578     5.8671    21.3890 opls-117      1 RES        0.423800
    2856 HW2         22.9189     4.6662    22.4694 opls-117      1 RES        0.423800
    2857 OW          24.3066     3.8879    13.5778 opls-116      1 RES       -0.847600
    2858 HW1         24.0861     2.9130    13.5456 opls-117      1 RES        0.423800
    2859 HW2         25.1291     4.0256    14.1295 opls-117      1 RES        0.423800
    2860 OW           8.1606    20.7089    12.9676 opls-116      1 RES       -0.847600
    2861 HW1          8.8628    21.0175    13.6092 opls-117      1 RES        0.423800
    2862 HW2          8.2051    19.7139    12.8779 opls-117      1 RES        0.423800
    2863 OW          20.0362    28.6471    25.2156 opls-116      1 RES       -0.847600
    2864 HW1         19.0803    28.3949    25.3661 opls-117      1 RES        0.423800
    2865 HW2         20.6097    28.2080    25.9072 opls-117      1 RES        0.423800
    2866 OW          30.0711    23.5904    26.4906 opls-116      1 RES       -0.847600
    2867 HW1         29.7780    23.1908    27.3592 opls-117      1 RES        0.423800
    2868 HW2         29.2698    23.7763    25.9220 opls-117      1 RES        0.423800
    2869 OW          13.9852    21.8467    20.0435 opls-116      1 RES       -0.847600
    2870 HW1         14.0921    21.8945    21.0366 opls-117      1 RES        0.423800
    2871 HW2         14.7868    21.4028    19.6430 opls-117      1 RES        0.423800
    2872 OW          10.0210    29.3472    21.6468 opls-116      1 RES       -0.847600
    2873 HW1          9.3455    30.0703    21.5025 opls-117      1 RES        0.423800
    2874 HW2          9.6334    28.4685    21.3680 opls-117      1 RES        0.423800
    2875 OW          23.6974    11.3062    13.8909 opls-116      1 RES       -0.847600
    2876 HW1         22.8791    10.7314    13.8821 opls-117      1 RES        0.423800
    2877 HW2         24.5120    10.7263    13.8869 opls-117      1 RES        0.423800
    2878 OW          28.0163    17.3035    15.8377 opls-116      1 RES       -0.847600
    2879 HW1         28.1042    16.3074    15.8410 opls-117      1 RES        0.423800
    2880 HW2         27.0944    17.5558    15.5437 opls-117      1 RES        0.423800
    2881 OW          20.7734    11.8577    23.4251 opls-116      1 RES       -0.847600
    2882 HW1         19.8103    12.0804    23.2740 opls-117      1 RES        0.423800
    2883 HW2         20.9783    10.9688    23.0154 opls-117      1 RES        0.423800
    2884 OW          24.6813    16.1167    10.8591 opls-116      1 RES       -0.847600
    2885 HW1         24.9227    16.7156    11.6227 opls-117      1 RES        0.423800
    2886 HW2         25.4167    15.4561    10.7082 opls-117      1 RES        0.423800
    2887 OW           6.2339    17.1627     2.5510 opls-116      1 RES       -0.847600
    2888 HW1          6.0318    17.9722     1.9997 opls-117      1 RES        0.423800
    2889 HW2          6.9727    16.6431     2.1218 opls-117      1 RES        0.423800
    2890 OW          15.6641    30.0974    28.9855 opls-116      1 RES       -0.847600
    2891 HW1         16.0169    29.2172    28.6680 opls-117      1 RES        0.423800
    2892 HW2         14.7676    29.9644    29.4081 opls-117      1 RES        0.423800
    2893 OW           2.7526    10.8845    24.1771 opls-116      1 RES       -0.847600
    2894 HW1          1.9900    10.3856    24.5888 opls-117      1 RES        0.423800
    2895 HW2          3.2691    11.3540    24.8931 opls-117      1 RES        0.423800
    2896 OW          26.1047    13.0740    23.0517 opls-116      1 RES       -0.847600
    2897 HW1         25.2172    12.6135    23.0405 opls-117      1 RES        0.423800
    2898 HW2         25.9664    14.0633    23.0977 opls-117      1 RES        0.423800
    2899 OW           7.7145    20.0107    17.2239 opls-116      1 RES       -0.847600
    2900 HW1          6.7205    20.0280    17.1165 opls-117      1 RES        0.423800
    2901 HW2          7.9885    19.1501    17.6533 opls-117      1 RES        0.423800
    2902 OW          24.8405    19.0529    14.8354 opls-116      1 RES       -0.847600
    2903 HW1         24.1066    19.6913    15.0675 opls-117      1 RES        0.423800
    2904 HW2         24.9692    18.4056    15.5867 opls-117      1 RES        0.423800
    2905 OW          13.2050     7.8276    18.0053 opls-116      1 RES       -0.847600
    2906 HW1         12.8209     7.1066    17.4285 opls-117      1 RES        0.423800
    2907 HW2         13.8749     8.3527    17.4805 opls-117      1 RES        0.423800
    2908 OW          30.0702    26.8523    28.6895 opls-116      1 RES       -0.847600
    2909 HW1         29.2958    27.4851    28.6943 opls-117      1 RES        0.423800
    2910 HW2         29.7318    25.9113    28.6939 opls-117      1 RES        0.423800
    2911 OW           6.3130     8.5518    11.9380 opls-116      1 RES       -0.847600
    2912 HW1          6.9245     8.0092    12.5138 opls-117      1 RES        0.423800
    2913 HW2          5.3650     8.2901    12.1193 opls-117      1 RES        0.423800
    2914 OW           7.3033    26.9529     4.4436 opls-116      1 RES       -0.847600
    2915 HW1          7.5485    27.8053     4.9054 opls-117      1 RES        0.423800
    2916 HW2          7.2969    26.2045     5.1068 opls-117      1 RES        0.423800
    2917 OW          25.2218    18.8694    18.1538 opls-116      1 RES       -0.847600
    2918 HW1         24.9411    17.9605    17.8455 opls-117      1 RES        0.423800
    2919 HW2         24.4650    19.3043    18.6417 opls-117      1 RES        0.423800
    2920 OW           5.2014    13.4276    27.7353 opls-116      1 RES       -0.847600
    2921 HW1          5.2002    14.2567    27.1762 opls-117      1 RES        0.423800
    2922 HW2          4.7038    13.5985    28.5858 opls-117      1 RES        0.423800
    2923 OW          25.2897    11.3751    30.0721 opls-116      1 RES       -0.847600
    2924 HW1         25.6412    10.4424    29.9914 opls-117      1 RES        0.423800
    2925 HW2         26.0523    12.0217    30.0510 opls-117      1 RES        0.423800
    2926 OW          19.5463     2.2564    13.6256 opls-116      1 RES       -0.847600
    2927 HW1         19.8512     3.2065    13.5603 opls-117      1 RES        0.423800
    2928 HW2         19.5135     1.9822    14.5867 opls-117      1 RES        0.423800
    2929 OW          15.6863     4.0366    19.2349 opls-116      1 RES       -0.847600
    2930 HW1         15.3330     4.2553    20.1445 opls-117      1 RES        0.423800
    2931 HW2         15.0661     3.3963    18.7816 opls-117      1 RES        0.423800
    2932 OW           4.5503    27.5851    27.0534 opls-116      1 RES       -0.847600
    2933 HW1          3.9325    28.2036    26.5679 opls-117      1 RES        0.423800
    2934 HW2          4.1841    26.6551    27.0212 opls-117      1 RES        0.423800
    2935 OW          21.9327    23.7492    11.0148 opls-116      1 RES       -0.847600
    2936 HW1         22.8724    23.7101    10.6751 opls-117      1 RES        0.423800
    2937 HW2         21.7931    24.6058    11.5116 opls-117      1 RES        0.423800
    2938 OW          25.9493     9.9648     2.5106 opls-116      1 RES       -0.847600
    2939 HW1         25.3064    10.5189     1.9819 opls-117      1 RES        0.423800
    2940 HW2         26.1423     9.1165     2.0175 opls-117      1 RES        0.423800
    2941 OW           8.4788    17.9429     7.5721 opls-116      1 RES       -0.847600
    2942 HW1          9.0957    17.2029     7.8400 opls-117      1 RES        0.423800
    2943 HW2          7.5341    17.6160     7.6004 opls-117      1 RES        0.423800
    2944 OW          14.0922    25.5103    23.3442 opls-116      1 RES       -0.847600
    2945 HW1         14.3391    24.5423    23.3889 opls-117      1 RES        0.423800
    2946 HW2         13.1045    25.5967    23.2144 opls-117      1 RES        0.423800
    2947 OW          22.8595    15.5114    13.8357 opls-116      1 RES       -0.847600
    2948 HW1         22.7591    14.5173    13.8766 opls-117      1 RES        0.423800
    2949 HW2         22.0747    15.9063    13.3582 opls-117      1 RES        0.423800
    2950 OW          25.4118    23.0046    14.5037 opls-116      1 RES       -0.847600
    2951 HW1         25.4961    23.9473    14.1808 opls-117      1 RES        0.423800
    2952 HW2         26.2673    22.5159    14.3323 opls-117      1 RES        0.423800
    2953 OW          18.7893     3.2822    29.0909 opls-116      1 RES       -0.847600
    2954 HW1         18.4394     2.3455    29.0873 opls-117      1 RES        0.423800
    2955 HW2         18.3910     3.7898    28.3268 opls-117      1 RES        0.423800
    2956 OW           3.3866    15.5000    21.9241 opls-116      1 RES       -0.847600
    2957 HW1          2.9691    16.2009    21.3457 opls-117      1 RES        0.423800
    2958 HW2          2.9689    15.5250    22.8323 opls-117      1 RES        0.423800
    2959 OW          19.3616    16.8747     9.9656 opls-116      1 RES       -0.847600
    2960 HW1         19.7189    15.9477     9.8506 opls-117      1 RES        0.423800
    2961 HW2         19.4486    17.1490    10.9232 opls-117      1 RES        0.423800
    2962 OW          26.0318    21.0256    29.1758 opls-116      1 RES       -0.847600
    2963 HW1         25.9947    21.4706    30.0706 opls-117      1 RES        0.423800
    2964 HW2         25.5472    20.1519    29.2177 opls-117      1 RES        0.423800
    2965 OW           2.9263    14.6735    27.8632 opls-116      1 RES       -0.847600
    2966 HW1          3.1102    15.6564    27.8549 opls-117      1 RES        0.423800
    2967 HW2          1.9454    14.5189    27.9806 opls-117      1 RES        0.423800
    2968 OW          19.8280    29.5538    23.1509 opls-116      1 RES       -0.847600
    2969 HW1         19.9685    29.8313    22.2005 opls-117      1 RES        0.423800
    2970 HW2         18.9867    29.9681    23.4982 opls-117      1 RES        0.423800
    2971 OW          23.0678    27.1227    12.0440 opls-116      1 RES       -0.847600
    2972 HW1         23.0282    28.1218    12.0253 opls-117      1 RES        0.423800
    2973 HW2         22.1393    26.7519    12.0270 opls-117      1 RES        0.423800
    2974 OW          13.4660    12.8101     6.4699 opls-116      1 RES       -0.847600
    2975 HW1         12.9663    12.9656     5.6177 opls-117      1 RES        0.423800
    2976 HW2         13.8445    13.6759     6.7971 opls-117      1 RES        0.423800
    2977 OW           5.7360    13.2700    21.5481 opls-116      1 RES       -0.847600
    2978 HW1          6.0900    13.0649    22.4606 opls-117      1 RES        0.423800
    2979 HW2          4.9388    13.8686    21.6267 opls-117      1 RES        0.423800
    2980 OW          11.7338    12.3994    11.4929 opls-116      1 RES       -0.847600
    2981 HW1         12.7320    12.3396    11.4912 opls-117      1 RES        0.423800
    2982 HW2         11.3656    11.8069    12.2093 opls-117      1 RES        0.423800
    2983 OW           4.7819    19.2844    12.5108 opls-116      1 RES       -0.847600
    2984 HW1          5.4859    19.5458    13.1711 opls-117      1 RES        0.423800
    2985 HW2          5.1441    18.5821    11.8979 opls-117      1 RES        0.423800
    2986 OW          11.3192    14.4727     3.8330 opls-116      1 RES       -0.847600
    2987 HW1         10.3292    14.6074     3.8755 opls-117      1 RES        0.423800
    2988 HW2         11.7470    14.8897     4.6350 opls-117      1 RES        0.423800
    2989 OW           2.0543    19.8615    22.0378 opls-116      1 RES       -0.847600
    2990 HW1          2.2507    18.9159    22.2974 opls-117      1 RES        0.423800
    2991 HW2          1.9883    19.9269    21.0421 opls-117      1 RES        0.423800
    2992 OW          13.4596    20.5030     9.4098 opls-116      1 RES       -0.847600
    2993 HW1         14.0508    21.1347     9.9112 opls-117      1 RES        0.423800
    2994 HW2         13.9753    19.6790     9.1749 opls-117      1 RES        0.423800
    2995 OW          10.4834    18.9871    13.9756 opls-116      1 RES       -0.847600
    2996 HW1         10.4966    19.6090    13.1926 opls-117      1 RES        0.423800
    2997 HW2          9.6389    18.4517    13.9617 opls-117      1 RES        0.423800
    2998 OW          30.0376    25.9229     2.3080 opls-116      1 RES       -0.847600
    2999 HW1         30.0713    26.0907     3.2933 opls-117      1 RES        0.423800
    3000 HW2         29.0869    25.9441     1.9987 opls-117      1 RES        0.423800
    3001 OW          27.0057    25.0688     5.6739 opls-116      1 RES       -0.847600
    3002 HW1         26.6245    24.2190     6.0379 opls-117      1 RES        0.423800
    3003 HW2         26.5018    25.3351     4.8522 opls-117      1 RES        0.423800
    3004 OW           2.4714     8.3850    16.0793 opls-116      1 RES       -0.847600
    3005 HW1          3.3941     8.7612    15.9946 opls-117      1 RES        0.423800
    3006 HW2          2.0078     8.8113    16.8561 opls-117      1 RES        0.423800
    3007 OW          13.6920    26.9989    16.7420 opls-116      1 RES       -0.847600
    3008 HW1         13.1679    27.8404    16.6108 opls-117      1 RES        0.423800
    3009 HW2         14.5405    27.0491    16.2151 opls-117      1 RES        0.423800
    3010 OW           9.1806    29.5563    16.1566 opls-116      1 RES       -0.847600
    3011 HW1          9.3970    28.6475    16.5132 opls-117      1 RES        0.423800
    3012 HW2          8.2188    29.5872    15.8843 opls-117      1 RES        0.423800
    3013 OW          15.5468    15.5961    20.4470 opls-116      1 RES       -0.847600
    3014 HW1         15.7674    16.5711    20.4724 opls-117      1 RES        0.423800
    3015 HW2         16.3685    15.0744    20.2173 opls-117      1 RES        0.423800
    3016 OW           5.9408    19.1585     4.3969 opls-116      1 RES       -0.847600
    3017 HW1          5.0391    18.8696     4.7188 opls-117      1 RES        0.423800
    3018 HW2          6.0994    20.1101     4.6601 opls-117      1 RES        0.423800
    3019 OW           2.7199    17.7591    27.3490 opls-116      1 RES       -0.847600
    3020 HW1          3.5520    18.1457    27.7466 opls-117      1 RES        0.423800
    3021 HW2          1.9358    18.3271    27.5992 opls-117      1 RES        0.423800
    3022 OW          17.1338    25.1788    11.0604 opls-116      1 RES       -0.847600
    3023 HW1         17.2463    24.1859    11.0971 opls-117      1 RES        0.423800
    3024 HW2         16.1594    25.4038    11.0548 opls-117      1 RES        0.423800
    3025 OW          28.5257    22.8536     2.1657 opls-116      1 RES       -0.847600
    3026 HW1         28.0316    22.4649     2.9434 opls-117      1 RES        0.423800
    3027 HW2         29.3566    22.3226     1.9996 opls-117      1 RES        0.423800
    3028 OW           2.0866    22.4640    25.8520 opls-116      1 RES       -0.847600
    3029 HW1          1.9956    21.5194    26.1673 opls-117      1 RES        0.423800
    3030 HW2          3.0530    22.6746    25.7047 opls-117      1 RES        0.423800
    3031 OW          19.4720    12.7109     5.1800 opls-116      1 RES       -0.847600
    3032 HW1         19.9078    12.8834     6.0634 opls-117      1 RES        0.423800
    3033 HW2         19.9834    12.0063     4.6880 opls-117      1 RES        0.423800
    3034 OW          17.2440    13.7375     9.4848 opls-116      1 RES       -0.847600
    3035 HW1         18.1956    13.8338     9.7767 opls-117      1 RES        0.423800
    3036 HW2         17.1375    12.8862     8.9711 opls-117      1 RES        0.423800
    3037 OW           8.6551    24.8672    27.2567 opls-116      1 RES       -0.847600
    3038 HW1          9.6330    24.6918    27.3705 opls-117      1 RES        0.423800
    3039 HW2          8.5056    25.8466    27.1214 opls-117      1 RES        0.423800
    3040 OW           2.5745    24.8504    29.1070 opls-116      1 RES       -0.847600
    3041 HW1          1.9979    25.0816    28.3234 opls-117      1 RES        0.423800
    3042 HW2          1.9987    24.6901    29.9087 opls-117      1 RES        0.423800
    3043 OW          23.5099    14.0712     4.6279 opls-116      1 RES       -0.847600
    3044 HW1         23.8981    13.1784     4.8565 opls-117      1 RES        0.423800
    3045 HW2         23.6900    14.7136     5.3728 opls-117      1 RES        0.423800
    3046 OW          15.1264    25.9353     1.9496 opls-116      1 RES       -0.847600
    3047 HW1         14.1880    26.2043     2.1664 opls-117      1 RES        0.423800
    3048 HW2         15.7449    26.6963     2.1451 opls-117      1 RES        0.423800
    3049 OW           5.9056     2.0023    11.9199 opls-116      1 RES       -0.847600
    3050 HW1          5.6349     2.8528    11.4690 opls-117      1 RES        0.423800
    3051 HW2          6.8994     1.9846    12.0292 opls-117      1 RES        0.423800
    3052 OW          16.2064    11.3360     5.4567 opls-116      1 RES       -0.847600
    3053 HW1         16.4928    11.2123     6.4068 opls-117      1 RES        0.423800
    3054 HW2         15.3943    10.7805     5.2783 opls-117      1 RES        0.423800
    3055 OW          23.4739     6.4087    15.2718 opls-116      1 RES       -0.847600
    3056 HW1         23.7142     5.4873    14.9664 opls-117      1 RES        0.423800
    3057 HW2         23.0424     6.3594    16.1725 opls-117      1 RES        0.423800
    3058 OW          24.8975    29.2661    15.0984 opls-116      1 RES       -0.847600
    3059 HW1         24.2978    29.9187    14.6352 opls-117      1 RES        0.423800
    3060 HW2         25.7850    29.6934    15.2708 opls-117      1 RES        0.423800
    3061 OW          27.2975    15.7458    27.6808 opls-116      1 RES       -0.847600
    3062 HW1         27.9425    15.0586    27.3465 opls-117      1 RES        0.423800
    3063 HW2         26.3938    15.3310    27.7868 opls-117      1 RES        0.423800
    3064 OW          14.2334    14.3701    18.4458 opls-116      1 RES       -0.847600
    3065 HW1         15.2323    14.4162    18.4522 opls-117      1 RES        0.423800
    3066 HW2         13.8691    14.9296    19.1903 opls-117      1 RES        0.423800
    3067 OW          15.4971    27.9711     6.3337 opls-116      1 RES       -0.847600
    3068 HW1         15.6986    28.9007     6.0248 opls-117      1 RES        0.423800
    3069 HW2         14.5215    27.8920     6.5382 opls-117      1 RES        0.423800
    3070 OW          21.5392     5.8777    19.8992 opls-116      1 RES       -0.847600
    3071 HW1         20.8059     5.5705    19.2925 opls-117      1 RES        0.423800
    3072 HW2         21.8950     6.7541    19.5748 opls-117      1 RES        0.423800
    3073 OW          28.4497    22.8287    23.3038 opls-116      1 RES       -0.847600
    3074 HW1         27.4560    22.7971    23.1963 opls-117      1 RES        0.423800
    3075 HW2         28.8756    23.0032    22.4160 opls-117      1 RES        0.423800
    3076 OW          24.4553    13.4258    29.3241 opls-116      1 RES       -0.847600
    3077 HW1         23.7498    13.0111    29.8988 opls-117      1 RES        0.423800
    3078 HW2         24.6506    12.8240    28.5497 opls-117      1 RES        0.423800
    3079 OW          15.8691    22.1394     3.2171 opls-116      1 RES       -0.847600
    3080 HW1         16.2440    21.3258     2.7727 opls-117      1 RES        0.423800
    3081 HW2         16.2196    22.9586     2.7631 opls-117      1 RES        0.423800
    3082 OW          21.3994    20.9563    11.5445 opls-116      1 RES       -0.847600
    3083 HW1         22.0801    21.6018    11.8909 opls-117      1 RES        0.423800
    3084 HW2         21.8612    20.1431    11.1902 opls-117      1 RES        0.423800
    3085 OW          28.4821     6.0374     2.4793 opls-116      1 RES       -0.847600
    3086 HW1         29.3524     6.1378     1.9970 opls-117      1 RES        0.423800
    3087 HW2         28.1518     5.0989     2.3789 opls-117      1 RES        0.423800
    3088 OW          12.7863    13.9555     9.0087 opls-116      1 RES       -0.847600
    3089 HW1         12.0986    14.3639     9.6089 opls-117      1 RES        0.423800
    3090 HW2         12.6297    12.9699     8.9447 opls-117      1 RES        0.423800
    3091 OW          21.1386    22.0688    29.1856 opls-116      1 RES       -0.847600
    3092 HW1         20.8348    22.4121    30.0743 opls-117      1 RES        0.423800
    3093 HW2         22.0256    22.4707    28.9585 opls-117      1 RES        0.423800
    3094 OW          28.6263    10.5664     2.6535 opls-116      1 RES       -0.847600
    3095 HW1         29.3694    10.3161     2.0329 opls-117      1 RES        0.423800
    3096 HW2         27.8727    10.9621     2.1287 opls-117      1 RES        0.423800
    3097 OW          26.3809    23.6732    11.8658 opls-116      1 RES       -0.847600
    3098 HW1         26.3337    24.5562    11.3989 opls-117      1 RES        0.423800
    3099 HW2         26.8252    23.0043    11.2698 opls-117      1 RES        0.423800
    3100 OW          24.6862    23.4753    28.6722 opls-116      1 RES       -0.847600
    3101 HW1         24.4493    22.6728    28.1246 opls-117      1 RES        0.423800
    3102 HW2         25.6137    23.3718    29.0312 opls-117      1 RES        0.423800
    3103 OW          17.9733     5.6014    19.8909 opls-116      1 RES       -0.847600
    3104 HW1         18.6504     5.1322    19.3240 opls-117      1 RES        0.423800
    3105 HW2         17.7981     6.5118    19.5161 opls-117      1 RES        0.423800
    3106 OW           9.4527    18.5598    25.8732 opls-116      1 RES       -0.847600
    3107 HW1         10.2671    18.6169    26.4508 opls-117      1 RES        0.423800
    3108 HW2          8.6763    18.2493    26.4216 opls-117      1 RES        0.423800
    3109 OW          20.8505     8.4301    14.1590 opls-116      1 RES       -0.847600
    3110 HW1         21.4324     7.6269    14.2857 opls-117      1 RES        0.423800
    3111 HW2         21.3502     9.2508    14.4361 opls-117      1 RES        0.423800
    3112 OW          11.4678     5.7076    28.2488 opls-116      1 RES       -0.847600
    3113 HW1         11.2508     6.5973    27.8471 opls-117      1 RES        0.423800
    3114 HW2         10.7011     5.0817    28.1066 opls-117      1 RES        0.423800
    3115 OW          27.9439     4.0129    18.3898 opls-116      1 RES       -0.847600
    3116 HW1         27.1517     4.6031    18.5448 opls-117      1 RES        0.423800
    3117 HW2         27.6403     3.0645    18.2987 opls-117      1 RES        0.423800
    3118 OW           4.1455     5.1538    22.2563 opls-116      1 RES       -0.847600
    3119 HW1          3.7013     4.9072    23.1176 opls-117      1 RES        0.423800
    3120 HW2          4.9251     5.7518    22.4426 opls-117      1 RES        0.423800
    3121 OW           4.7586    17.1667    13.5806 opls-116      1 RES       -0.847600
    3122 HW1          4.4657    16.6754    12.7603 opls-117      1 RES        0.423800
    3123 HW2          5.7520    17.2809    13.5638 opls-117      1 RES        0.423800
    3124 OW          25.3202    12.7199    14.3450 opls-116      1 RES       -0.847600
    3125 HW1         25.4280    13.6356    14.7322 opls-117      1 RES        0.423800
    3126 HW2         26.1381    12.4807    13.8218 opls-117      1 RES        0.423800
    3127 OW          18.4999    30.0692     2.3642 opls-116      1 RES       -0.847600
    3128 HW1         17.9079    29.6448     3.0494 opls-117      1 RES        0.423800
    3129 HW2         19.1317    29.3850     1.9999 opls-117      1 RES        0.423800
    3130 OW          13.4663     3.4278    27.6443 opls-116      1 RES       -0.847600
    3131 HW1         14.1354     3.8237    28.2732 opls-117      1 RES        0.423800
    3132 HW2         12.5793     3.8692    27.7802 opls-117      1 RES        0.423800
    3133 OW           3.0238    28.9927    18.3158 opls-116      1 RES       -0.847600
    3134 HW1          3.9663    28.8318    18.0228 opls-117      1 RES        0.423800
    3135 HW2          2.7475    29.9180    18.0563 opls-117      1 RES        0.423800
    3136 OW           5.5120    22.7222     1.9964 opls-116      1 RES       -0.847600
    3137 HW1          4.7491    22.9706     2.5933 opls-117      1 RES        0.423800
    3138 HW2          5.7035    21.7451     2.0894 opls-117      1 RES        0.423800
    3139 OW          15.1809    21.4237    17.3049 opls-116      1 RES       -0.847600
    3140 HW1         14.3676    20.9302    16.9969 opls-117      1 RES        0.423800
    3141 HW2         14.9141    22.3235    17.6499 opls-117      1 RES        0.423800
    3142 OW          13.5208    29.6181    12.1389 opls-116      1 RES       -0.847600
    3143 HW1         12.7119    29.5007    12.7150 opls-117      1 RES        0.423800
    3144 HW2         14.2402    30.0735    12.6632 opls-117      1 RES        0.423800
    3145 OW          20.6211    19.7753     3.5400 opls-116      1 RES       -0.847600
    3146 HW1         20.5786    19.1745     4.3383 opls-117      1 RES        0.423800
    3147 HW2         19.9232    20.4869     3.6208 opls-117      1 RES        0.423800
    3148 OW           8.9734     4.6267     6.6916 opls-116      1 RES       -0.847600
    3149 HW1          9.0700     3.6741     6.4032 opls-117      1 RES        0.423800
    3150 HW2          8.1976     4.7086     7.3172 opls-117      1 RES        0.423800
    3151 OW          16.1711    26.1015    17.3459 opls-116      1 RES       -0.847600
    3152 HW1         15.4155    25.9051    17.9708 opls-117      1 RES        0.423800
    3153 HW2         16.0909    25.5233    16.5339 opls-117      1 RES        0.423800
    3154 OW          26.2781     3.4753     6.4963 opls-116      1 RES       -0.847600
    3155 HW1         27.2481     3.6241     6.3041 opls-117      1 RES        0.423800
    3156 HW2         26.0876     2.4937     6.5089 opls-117      1 RES        0.423800
    3157 OW          11.0867     1.9950    10.4297 opls-116      1 RES       -0.847600
    3158 HW1         10.4411     2.7577    10.3920 opls-117      1 RES        0.423800
    3159 HW2         11.9149     2.2341     9.9228 opls-117      1 RES        0.423800
    3160 OW           2.0051    26.5159    14.7587 opls-116      1 RES       -0.847600
    3161 HW1          2.7302    27.0449    14.3177 opls-117      1 RES        0.423800
    3162 HW2          2.0152    25.5795    14.4079 opls-117      1 RES        0.423800
    3163 OW           5.1228    27.2849    16.3278 opls-116      1 RES       -0.847600
    3164 HW1          4.5734    27.0790    15.5181 opls-117      1 RES        0.423800
    3165 HW2          5.4161    28.2405    16.2975 opls-117      1 RES        0.423800
    3166 OW           5.2869    13.1701     2.4057 opls-116      1 RES       -0.847600
    3167 HW1          4.3764    12.7705     2.5118 opls-117      1 RES        0.423800
    3168 HW2          5.2062    14.0803     1.9994 opls-117      1 RES        0.423800
    3169 OW          16.0454     5.7624    10.3048 opls-116      1 RES       -0.847600
    3170 HW1         16.0022     4.8246     9.9604 opls-117      1 RES        0.423800
    3171 HW2         16.9997     6.0581    10.3477 opls-117      1 RES        0.423800
    3172 OW           3.4637    15.6324     5.6460 opls-116      1 RES       -0.847600
    3173 HW1          3.4825    14.6338     5.6943 opls-117      1 RES        0.423800
    3174 HW2          4.3762    15.9724     5.4185 opls-117      1 RES        0.423800
    3175 OW           3.5754    19.1675     2.2053 opls-116      1 RES       -0.847600
    3176 HW1          3.8463    18.2229     2.0197 opls-117      1 RES        0.423800
    3177 HW2          4.3374    19.7801     1.9954 opls-117      1 RES        0.423800
    3178 OW          29.0922     2.0048     6.0225 opls-116      1 RES       -0.847600
    3179 HW1         28.6083     2.2959     5.1972 opls-117      1 RES        0.423800
    3180 HW2         29.7047     2.7352     6.3248 opls-117      1 RES        0.423800
    3181 OW          11.6947    24.9799     7.7767 opls-116      1 RES       -0.847600
    3182 HW1         11.2501    25.8748     7.8145 opls-117      1 RES        0.423800
    3183 HW2         12.6772    25.1016     7.6353 opls-117      1 RES        0.423800
    3184 OW          24.8317    21.5785     1.9986 opls-116      1 RES       -0.847600
    3185 HW1         25.2709    22.0535     2.7612 opls-117      1 RES        0.423800
    3186 HW2         25.0386    20.6015     2.0510 opls-117      1 RES        0.423800
    3187 OW           5.6759    10.5754    22.5815 opls-116      1 RES       -0.847600
    3188 HW1          5.4862     9.6231    22.8206 opls-117      1 RES        0.423800
    3189 HW2          5.3955    11.1704    23.3347 opls-117      1 RES        0.423800
    3190 OW          18.0975    13.6966     3.5116 opls-116      1 RES       -0.847600
    3191 HW1         17.9505    14.0190     2.5765 opls-117      1 RES        0.423800
    3192 HW2         18.0072    12.7010     3.5390 opls-117      1 RES        0.423800
    3193 OW          29.3525     7.4860    20.7562 opls-116      1 RES       -0.847600
    3194 HW1         28.9188     8.3870    20.7430 opls-117      1 RES        0.423800
    3195 HW2         30.0716     7.4520    20.0622 opls-117      1 RES        0.423800
    3196 OW          24.3858    14.4107    21.5372 opls-116      1 RES       -0.847600
    3197 HW1         24.3742    13.5532    21.0228 opls-117      1 RES        0.423800
    3198 HW2         23.4684    14.8087    21.5424 opls-117      1 RES        0.423800
    3199 OW          18.5751    24.5361    13.3826 opls-116      1 RES       -0.847600
    3200 HW1         17.6725    24.1125    13.3061 opls-117      1 RES        0.423800
    3201 HW2         18.7651    24.7449    14.3419 opls-117      1 RES        0.423800
    3202 OW          15.3679    25.9364    14.2790 opls-116      1 RES       -0.847600
    3203 HW1         14.3902    25.7852    14.4245 opls-117      1 RES        0.423800
    3204 HW2         15.5506    26.9187    14.2366 opls-117      1 RES        0.423800
    3205 OW           6.9197    22.6220     8.3628 opls-116      1 RES       -0.847600
    3206 HW1          6.0316    22.4955     7.9208 opls-117      1 RES        0.423800
    3207 HW2          7.4238    21.7584     8.3512 opls-117      1 RES        0.423800
    3208 OW          18.5543     7.5161    13.6058 opls-116      1 RES       -0.847600
    3209 HW1         18.6971     6.8960    12.8344 opls-117      1 RES        0.423800
    3210 HW2         18.6731     7.0147    14.4629 opls-117      1 RES        0.423800
    3211 OW          22.6184    16.9634    25.3879 opls-116      1 RES       -0.847600
    3212 HW1         22.0211    17.4861    24.7797 opls-117      1 RES        0.423800
    3213 HW2         22.0778    16.2817    25.8810 opls-117      1 RES        0.423800
    3214 OW          16.3595    29.2073    14.2948 opls-116      1 RES       -0.847600
    3215 HW1         16.9878    28.5610    13.8618 opls-117      1 RES        0.423800
    3216 HW2         16.8284    30.0775    14.4460 opls-117      1 RES        0.423800
    3217 OW          15.9434    13.8140    21.9733 opls-116      1 RES       -0.847600
    3218 HW1         16.3110    14.3316    22.7460 opls-117      1 RES        0.423800
    3219 HW2         16.6293    13.1603    21.6535 opls-117      1 RES        0.423800
    3220 OW          26.1420    12.8197    17.4725 opls-116      1 RES       -0.847600
    3221 HW1         25.4011    12.6754    18.1285 opls-117      1 RES        0.423800
    3222 HW2         26.8032    12.0732    17.5470 opls-117      1 RES        0.423800
    3223 OW          24.3429    21.9468    12.4262 opls-116      1 RES       -0.847600
    3224 HW1         23.9115    21.3208    13.0758 opls-117      1 RES        0.423800
    3225 HW2         25.3356    21.8313    12.4610 opls-117      1 RES        0.423800
    3226 OW          13.8281    16.1655    22.3622 opls-116      1 RES       -0.847600
    3227 HW1         14.4125    15.3555    22.3155 opls-117      1 RES        0.423800
    3228 HW2         13.8079    16.6140    21.4686 opls-117      1 RES        0.423800
    3229 OW          22.0728    18.3263    14.6956 opls-116      1 RES       -0.847600
    3230 HW1         21.9431    18.8393    15.5442 opls-117      1 RES        0.423800
    3231 HW2         22.9522    17.8510    14.7245 opls-117      1 RES        0.423800
    3232 OW          15.4752     9.2741    25.2071 opls-116      1 RES       -0.847600
    3233 HW1         15.0022     8.3932    25.2223 opls-117      1 RES        0.423800
    3234 HW2         16.4634     9.1216    25.1931 opls-117      1 RES        0.423800
    3235 OW          15.3044     2.0074    24.5048 opls-116      1 RES       -0.847600
    3236 HW1         14.4673     2.0631    23.9605 opls-117      1 RES        0.423800
    3237 HW2         15.5895     2.9276    24.7729 opls-117      1 RES        0.423800
    3238 OW          23.9881    18.5983    29.9330 opls-116      1 RES       -0.847600
    3239 HW1         24.9074    18.2296    30.0710 opls-117      1 RES        0.423800
    3240 HW2         23.6389    18.2992    29.0450 opls-117      1 RES        0.423800
    3241 OW          14.8437    12.3242    17.8904 opls-116      1 RES       -0.847600
    3242 HW1         14.1877    11.5696    17.9079 opls-117      1 RES        0.423800
    3243 HW2         15.4693    12.2401    18.6659 opls-117      1 RES        0.423800
    3244 OW          17.3575    14.9131    16.2473 opls-116      1 RES       -0.847600
    3245 HW1         16.9985    14.7285    15.3324 opls-117      1 RES        0.423800
    3246 HW2         16.5988    15.0968    16.8722 opls-117      1 RES        0.423800
    3247 OW          18.5081    11.0391     2.1875 opls-116      1 RES       -0.847600
    3248 HW1         17.6587    10.6243     2.5139 opls-117      1 RES        0.423800
    3249 HW2         19.2573    10.7920     2.8020 opls-117      1 RES        0.423800
    3250 OW          24.0185    26.4442    17.0437 opls-116      1 RES       -0.847600
    3251 HW1         24.6261    27.0359    16.5139 opls-117      1 RES        0.423800
    3252 HW2         23.0963    26.8310    17.0472 opls-117      1 RES        0.423800
    3253 OW          22.3279    10.9861    28.3549 opls-116      1 RES       -0.847600
    3254 HW1         23.1994    11.1848    28.8033 opls-117      1 RES        0.423800
    3255 HW2         22.0945    11.7342    27.7336 opls-117      1 RES        0.423800
    3256 OW          25.3248     6.8791     7.2244 opls-116      1 RES       -0.847600
    3257 HW1         25.7861     6.0457     7.5290 opls-117      1 RES        0.423800
    3258 HW2         25.6241     7.6501     7.7864 opls-117      1 RES        0.423800
    3259 OW          13.0208    14.6661    15.7505 opls-116      1 RES       -0.847600
    3260 HW1         12.1130    14.7554    16.1603 opls-117      1 RES        0.423800
    3261 HW2         13.0050    15.0361    14.8216 opls-117      1 RES        0.423800
    3262 OW          18.5046     8.5916    26.9425 opls-116      1 RES       -0.847600
    3263 HW1         19.1982     7.8858    27.0863 opls-117      1 RES        0.423800
    3264 HW2         18.8643     9.2917    26.3257 opls-117      1 RES        0.423800
    3265 OW          15.5069    23.7452    14.1491 opls-116      1 RES       -0.847600
    3266 HW1         15.0734    23.7934    15.0490 opls-117      1 RES        0.423800
    3267 HW2         14.8247    23.4910    13.4636 opls-117      1 RES        0.423800
    3268 OW          26.0089    21.7559    19.7216 opls-116      1 RES       -0.847600
    3269 HW1         25.5332    21.1824    19.0546 opls-117      1 RES        0.423800
    3270 HW2         25.6211    21.6019    20.6303 opls-117      1 RES        0.423800
    3271 OW          25.7277    20.0736     5.5498 opls-116      1 RES       -0.847600
    3272 HW1         26.7015    20.2704     5.4360 opls-117      1 RES        0.423800
    3273 HW2         25.6093    19.1140     5.8051 opls-117      1 RES        0.423800
    3274 OW          25.5358     5.7563    12.6440 opls-116      1 RES       -0.847600
    3275 HW1         25.9395     6.6478    12.8497 opls-117      1 RES        0.423800
    3276 HW2         24.5406     5.8436    12.5986 opls-117      1 RES        0.423800
    3277 OW          20.4220    27.5124    10.8817 opls-116      1 RES       -0.847600
    3278 HW1         19.7407    26.8246    11.1320 opls-117      1 RES        0.423800
    3279 HW2         20.0543    28.0986    10.1598 opls-117      1 RES        0.423800
    3280 OW          19.9935    19.4010     9.7489 opls-116      1 RES       -0.847600
    3281 HW1         19.0666    19.0536     9.8907 opls-117      1 RES        0.423800
    3282 HW2         20.6502    18.6559     9.8652 opls-117      1 RES        0.423800
    3283 OW          28.1928     7.3219    12.3079 opls-116      1 RES       -0.847600
    3284 HW1         28.9376     7.9890    12.3251 opls-117      1 RES        0.423800
    3285 HW2         27.7033     7.3912    11.4387 opls-117      1 RES        0.423800
    3286 OW          16.6296    11.5021    23.3862 opls-116      1 RES       -0.847600
    3287 HW1         16.0038    11.0443    24.0178 opls-117      1 RES        0.423800
    3288 HW2         16.8215    12.4257    23.7181 opls-117      1 RES        0.423800
    3289 OW          28.0068     6.1897     8.8250 opls-116      1 RES       -0.847600
    3290 HW1         27.9495     5.8623     7.8819 opls-117      1 RES        0.423800
    3291 HW2         27.2254     6.7823     9.0203 opls-117      1 RES        0.423800
    3292 OW          16.4587    26.6763    28.8561 opls-116      1 RES       -0.847600
    3293 HW1         16.0377    27.2176    29.5839 opls-117      1 RES        0.423800
    3294 HW2         16.9678    27.2806    28.2432 opls-117      1 RES        0.423800
    3295 OW          17.7662    27.1795     5.0914 opls-116      1 RES       -0.847600
    3296 HW1         17.2585    26.7502     5.8384 opls-117      1 RES        0.423800
    3297 HW2         17.2921    28.0105     4.8005 opls-117      1 RES        0.423800
    3298 OW          13.1188     8.1506     7.1231 opls-116      1 RES       -0.847600
    3299 HW1         13.6585     8.0019     6.2945 opls-117      1 RES        0.423800
    3300 HW2         12.2414     8.5639     6.8798 opls-117      1 RES        0.423800
@<TRIPOS>BOND
       1        2        1 1
       2        3        1 1
       3        5        4 1
       4        6        4 1
       5        8        7 1
       6        9        7 1
       7       11       10 1
       8       12       10 1
       9       14       13 1
      10       15       13 1
      11       17       16 1
      12       18       16 1
      13       20       19 1
      14       21       19 1
      15       23       22 1
      16       24       22 1
      17       26       25 1
      18       27       25 1
      19       29       28 1
      20       30       28 1
      21       32       31 1
      22       33       31 1
      23       35       34 1
      24       36       34 1
      25       38       37 1
      26       39       37 1
      27       41       40 1
      28       42       40 1
      29       44       43 1
      30       45       43 1
      31       47       46 1
      32       48       46 1
      33       50       49 1
      34       51       49 1
      35       53       52 1
      36       54       52 1
      37       56       55 1
      38       57       55 1
      39       59       58 1
      40       60       58 1
      41       62       61 1
      42       63       61 1
      43       65       64 1
      44       66       64 1
      45       68       67 1
      46       69       67 1
      47       71       70 1
      48       72       70 1
      49       74       73 1
      50       75       73 1
      51       77       76 1
      52       78       76 1
      53       80       79 1
      54       81       79 1
      55       83       82 1
      56       84       82 1
      57       86       85 1
      58       87       85 1
      59       89       88 1
      60       90       88 1
      61       92       91 1
      62       93       91 1
      63       95       94 1
      64       96       94 1
      65       98       97 1
      66       99       97 1
      67      101      100 1
      68      102      100 1
      69      104      103 1
      70      105      103 1
      71      107      106 1
      72      108      106 1
      73      110      109 1
      74      111      109 1
      75      113      112 1
      76      114      112 1
      77      116      115 1
      78      117      115 1
      79      119      118 1
      80      120      118 1
      81      122      121 1
      82      123      121 1
      83      125      124 1
      84      126      124 1
      85      128      127 1
      86      129      127 1
      87      131      130 1
      88      132      130 1
      89      134      133 1
      90      135      133 1
      91      137      136 1
      92      138      136 1
      93      140      139 1
      94      141      139 1
      95      143      142 1
      96      144      142 1
      97      146      145 1
      98      147      145 1
      99      149      148 1
     100      150      148 1
     101      152      151 1
     102      153      151 1
     103      155      154 1
     104      156      154 1
     105      158      157 1
     106      159      157 1
     107      161      160 1
     108      162      160 1
     109      164      163 1
     110      165      163 1
     111      167      166 1
     112      168      166 1
     113      170      169 1
     114      171      169 1
     115      173      172 1
     116      174      172 1
     117      176      175 1
     118      177      175 1
     119      179      178 1
     120      180      178 1
     121      182      181 1
     122      183      181 1
     123      185      184 1
     124      186      184 1
     125      188      187 1
     126      189      187 1
     127      191      190 1
     128      192      190 1
     129      194      193 1
     130      195      193 1
     131      197      196 1
     132      198      196 1
     133      200      199 1
     134      201      199 1
     135      203      202 1
     136      204      202 1
     137      206      205 1
     138      207      205 1
     139      209      208 1
     140      210      208 1
     141      212      211 1
     142      213      211 1
     143      215      214 1
     144      216      214 1
     145      218      217 1
     146      219      217 1
     147      221      220 1
     148      222      220 1
     149      224      223 1
     150      225      223 1
     151      227      226 1
     152      228      226 1
     153      230      229 1
     154      231      229 1
     155      233      232 1
     156      234      232 1
     157      236      235 1
     158      237      235 1
     159      239      238 1
     160      240      238 1
     161      242      241 1
     162      243      241 1
     163      245      244 1
     164      246      244 1
     165      248      247 1
     166      249      247 1
     167      251      250 1
     168      252      250 1
     169      254      253 1
     170      255      253 1
     171      257      256 1
     172      258      256 1
     173      260      259 1
     174      261      259 1
     175      263      262 1
     176      264      262 1
     177      266      265 1
     178      267      265 1
     179      269      268 1
     180      270      268 1
     181      272      271 1
     182      273      271 1
     183      275      274 1
     184      276      274 1
     185      278      277 1
     186      279      277 1
     187      281      280 1
     188      282      280 1
     189      284      283 1
     190      285      283 1
     191      287      286 1
     192      288      286 1
     193      290      289 1
     194      291      289 1
     195      293      292 1
     196      294      292 1
     197      296      295 1
     198      297      295 1
     199      299      298 1
     200      300      298 1
     201      302      301 1
     202      303      301 1
     203      305      304 1
     204      306      304 1
     205      308      307 1
     206      309      307 1
     207      311      310 1
     208      312      310 1
     209      314      313 1
     210      315      313 1
     211      317      316 1
     212      318      316 1
     213      320      319 1
     214      321      319 1
     215      323      322 1
     216      324      322 1
     217      326      325 1
     218      327      325 1
     219      329      328 1
     220      330      328 1
     221      332      331 1
     222      333      331 1
     223      335      334 1
     224      336      334 1
     225      338      337 1
     226      339      337 1
     227      341      340 1
     228      342      340 1
     229      344      343 1
     230      345      343 1
     231      347      346 1
     232      348      346 1
     233      350      349 1
     234      351      349 1
     235      353      352 1
     236      354      352 1
     237      356      355 1
     238      357      355 1
     239      359      358 1
     240      360      358 1
     241      362      361 1
     242      363      361 1
     243      365      364 1
     244      366      364 1
     245      368      367 1
     246      369      367 1
     247      371      370 1
     248      372      370 1
     249      374      373 1
     250      375      373 1
     251      377      376 1
     252      378      376 1
     253      380      379 1
     254      381      379 1
     255      383      382 1
     256      384      382 1
     257      386      385 1
     258      387      385 1
     259      389      388 1
     260      390      388 1
     261      392      391 1
     262      393      391 1
     263      395      394 1
     264      396      394 1
     265      398      397 1
     266      399      397 1
     267      401      400 1
     268      402      400 1
     269      404      403 1
     270      405      403 1
     271      407      406 1
     272      408      406 1
     273      410      409 1
     274      411      409 1
     275      413      412 1
     276      414      412 1
     277      416      415 1
     278      417      415 1
     279      419      418 1
     280      420      418 1
     281      422      421 1
     282      423      421 1
     283      425      424 1
     284      426      424 1
     285      428      427 1
     286      429      427 1
     287      431      430 1
     288      432      430 1
     289      434      433 1
     290      435      433 1
     291      437      436 1
     292      438      436 1
     293      440      439 1
     294      441      439 1
     295      443      442 1
     296      444      442 1
     297      446      445 1
     298      447      445 1
     299      449      448 1
     300      450      448 1
     301      452      451 1
     302      453      451 1
     303      455      454 1
     304      456      454 1
     305      458      457 1
     306      459      457 1
     307      461      460 1
     308      462      460 1
     309      464      463 1
     310      465      463 1
     311      467      466 1
     312      468      466 1
     313      470      469 1
     314      471      469 1
     315      473      472 1
     316      474      472 1
     317      476      475 1
     318      477      475 1
     319      479      478 1
     320      480      478 1
     321      482      481 1
     322      483      481 1
     323      485      484 1
     324      486      484 1
     325      488      487 1
     326      489      487 1
     327      491      490 1
     328      492      490 1
     329      494      493 1
     330      495      493 1
     331      497      496 1
     332      498      496 1
     333      500      499 1
     334      501      499 1
     335      503      502 1
     336      504      502 1
     337      506      505 1
     338      507      505 1
     339      509      508 1
     340      510      508 1
     341      512      511 1
     342      513      511 1
     343      515      514 1
     344      516      514 1
     345      518      517 1
     346      519      517 1
     347      521      520 1
     348      522      520 1
     349      524      523 1
     350      525      523 1
     351      527      526 1
     352      528      526 1
     353      530      529 1
     354      531      529 1
     355      533      532 1
     356      534      532 1
     357      536      535 1
     358      537      535 1
     359      539      538 1
     360      540      538 1
     361      542      541 1
     362      543      541 1
     363      545      544 1
     364      546      544 1
     365      548      547 1
     366      549      547 1
     367      551      550 1
     368      552      550 1
     369      554      553 1
     370      555      553 1
     371      557      556 1
     372      558      556 1
     373      560      559 1
     374      561      559 1
     375      563      562 1
     376      564      562 1
     377      566      565 1
     378      567      565 1
     379      569      568 1
     380      570      568 1
     381      572      571 1
     382      573      571 1
     383      575      574 1
     384      576      574 1
     385      578      577 1
     386      579      577 1
     387      581      580 1
     388      582      580 1
     389      584      583 1
     390      585      583 1
     391      587      586 1
     392      588      586 1
     393      590      589 1
     394      591      589 1
     395      593      592 1
     396      594      592 1
     397      596      595 1
     398      597      595 1
     399      599      598 1
     400      600      598 1
     401      602      601 1
     402      603      601 1
     403      605      604 1
     404      606      604 1
     405      608      607 1
     406      609      607 1
     407      611      610 1
     408      612      610 1
     409      614      613 1
     410      615      613 1
     411      617      616 1
     412      618      616 1
     413      620      619 1
     414      621      619 1
     415      623      622 1
     416      624      622 1
     417      626      625 1
     418      627      625 1
     419      629      628 1
     420      630      628 1
     421      632      631 1
     422      633      631 1
     423      635      634 1
     424      636      634 1
     425      638      637 1
     426      639      637 1
     427      641      640 1
     428      642      640 1
     429      644      643 1
     430      645      643 1
     431      647      646 1
     432      648      646 1
     433      650      649 1
     434      651      649 1
     435      653      652 1
     436      654      652 1
     437      656      655 1
     438      657      655 1
     439      659      658 1
     440      660      658 1
     441      662      661 1
     442      663      661 1
     443      665      664 1
     444      666      664 1
     445      668      667 1
     446      669      667 1
     447      671      670 1
     448      672      670 1
     449      674      673 1
     450      675      673 1
     451      677      676 1
     452      678      676 1
     453      680      679 1
     454      681      679 1
     455      683      682 1
     456      684      682 1
     457      686      685 1
     458      687      685 1
     459      689      688 1
     460      690      688 1
     461      692      691 1
     462      693      691 1
     463      695      694 1
     464      696      694 1
     465      698      697 1
     466      699      697 1
     467      701      700 1
     468      702      700 1
     469      704      703 1
     470      705      703 1
     471      707      706 1
     472      708      706 1
     473      710      709 1
     474      711      709 1
     475      713      712 1
     476      714      712 1
     477      716      715 1
     478      717      715 1
     479      719      718 1
     480      720      718 1
     481      722      721 1
     482      723      721 1
     483      725      724 1
     484      726      724 1
     485      728      727 1
     486      729      727 1
     487      731      730 1
     488      732      730 1
     489      734      733 1
     490      735      733 1
     491      737      736 1
     492      738      736 1
     493      740      739 1
     494      741      739 1
     495      743      742 1
     496      744      742 1
     497      746      745 1
     498      747      745 1
     499      749      748 1
     500      750      748 1
     501      752      751 1
     502      753      751 1
     503      755      754 1
     504      756      754 1
     505      758      757 1
     506      759      757 1
     507      761      760 1
     508      762      760 1
     509      764      763 1
     510      765      763 1
     511      767      766 1
     512      768      766 1
     513      770      769 1
     514      771      769 1
     515      773      772 1
     516      774      772 1
     517      776      775 1
     518      777      775 1
     519      779      778 1
     520      780      778 1
     521      782      781 1
     522      783      781 1
     523      785      784 1
     524      786      784 1
     525      788      787 1
     526      789      787 1
     527      791      790 1
     528      792      790 1
     529      794      793 1
     530      795      793 1
     531      797      796 1
     532      798      796 1
     533      800      799 1
     534      801      799 1
     535      803      802 1
     536      804      802 1
     537      806      805 1
     538      807      805 1
     539      809      808 1
     540      810      808 1
     541      812      811 1
     542      813      811 1
     543      815      814 1
     544      816      814 1
     545      818      817 1
     546      819      817 1
     547      821      820 1
     548      822      820 1
     549      824      823 1
     550      825      823 1
     551      827      826 1
     552      828      826 1
     553      830      829 1
     554      831      829 1
     555      833      832 1
     556      834      832 1
     557      836      835 1
     558      837      835 1
     559      839      838 1
     560      840      838 1
     561      842      841 1
     562      843      841 1
     563      845      844 1
     564      846      844 1
     565      848      847 1
     566      849      847 1
     567      851      850 1
     568      852      850 1
     569      854      853 1
     570      855      853 1
     571      857      856 1
     572      858      856 1
     573      860      859 1
     574      861      859 1
     575      863      862 1
     576      864      862 1
     577      866      865 1
     578      867      865 1
     579      869      868 1
     580      870      868 1
     581      872      871 1
     582      873      871 1
     583      875      874 1
     584      876      874 1
     585      878      877 1
     586      879      877 1
     587      881      880 1
     588      882      880 1
     589      884      883 1
     590      885      883 1
     591      887      886 1
     592      888      886 1
     593      890      889 1
     594      891      889 1
     595      893      892 1
     596      894      892 1
     597      896      895 1
     598      897      895 1
     599      899      898 1
     600      900      898 1
     601      902      901 1
     602      903      901 1
     603      905      904 1
     604      906      904 1
     605      908      907 1
     606      909      907 1
     607      911      910 1
     608      912      910 1
     609      914      913 1
     610      915      913 1
     611      917      916 1
     612      918      916 1
     613      920      919 1
     614      921      919 1
     615      923      922 1
     616      924      922 1
     617      926      925 1
     618      927      925 1
     619      929      928 1
     620      930      928 1
     621      932      931 1
     622      933      931 1
     623      935      934 1
     624      936      934 1
     625      938      937 1
     626      939      937 1
     627      941      940 1
     628      942      940 1
     629      944      943 1
     630      945      943 1
     631      947      946 1
     632      948      946 1
     633      950      949 1
     634      951      949 1
     635      953      952 1
     636      954      952 1
     637      956      955 1
     638      957      955 1
     639      959      958 1
     640      960      958 1
     641      962      961 1
     642      963      961 1
     643      965      964 1
     644      966      964 1
     645      968      967 1
     646      969      967 1
     647      971      970 1
     648      972      970 1
     649      974      973 1
     650      975      973 1
     651      977      976 1
     652      978      976 1
     653      980      979 1
     654      981      979 1
     655      983      982 1
     656      984      982 1
     657      986      985 1
     658      987      985 1
     659      989      988 1
     660      990      988 1
     661      992      991 1
     662      993      991 1
     663      995      994 1
     664      996      994 1
     665      998      997 1
     666      999      997 1
     667     1001     1000 1
     668     1002     1000 1
     669     1004     1003 1
     670     1005     1003 1
     671     1007     1006 1
     672     1008     1006 1
     673     1010     1009 1
     674     1011     1009 1
     675     1013     1012 1
     676     1014     1012 1
     677     1016     1015 1
     678     1017     1015 1
     679     1019     1018 1
     680     1020     1018 1
     681     1022     1021 1
     682     1023     1021 1
     683     1025     1024 1
     684     1026     1024 1
     685     1028     1027 1
     686     1029     1027 1
     687     1031     1030 1
     688     1032     1030 1
     689     1034     1033 1
     690     1035     1033 1
     691     1037     1036 1
     692     1038     1036 1
     693     1040     1039 1
     694     1041     1039 1
     695     1043     1042 1
     696     1044     1042 1
     697     1046     1045 1
     698     1047     1045 1
     699     1049     1048 1
     700     1050     1048 1
     701     1052     1051 1
     702     1053     1051 1
     703     1055     1054 1
     704     1056     1054 1
     705     1058     1057 1
     706     1059     1057 1
     707     1061     1060 1
     708     1062     1060 1
     709     1064     1063 1
     710     1065     1063 1
     711     1067     1066 1
     712     1068     1066 1
     713     1070     1069 1
     714     1071     1069 1
     715     1073     1072 1
     716     1074     1072 1
     717     1076     1075 1
     718     1077     1075 1
     719     1079     1078 1
     720     1080     1078 1
     721     1082     1081 1
     722     1083     1081 1
     723     1085     1084 1
     724     1086     1084 1
     725     1088     1087 1
     726     1089     1087 1
     727     1091     1090 1
     728     1092     1090 1
     729     1094     1093 1
     730     1095     1093 1
     731     1097     1096 1
     732     1098     1096 1
     733     1100     1099 1
     734     1101     1099 1
     735     1103     1102 1
     736     1104     1102 1
     737     1106     1105 1
     738     1107     1105 1
     739     1109     1108 1
     740     1110     1108 1
     741     1112     1111 1
     742     1113     1111 1
     743     1115     1114 1
     744     1116     1114 1
     745     1118     1117 1
     746     1119     1117 1
     747     1121     1120 1
     748     1122     1120 1
     749     1124     1123 1
     750     1125     1123 1
     751     1127     1126 1
     752     1128     1126 1
     753     1130     1129 1
     754     1131     1129 1
     755     1133     1132 1
     756     1134     1132 1
     757     1136     1135 1
     758     1137     1135 1
     759     1139     1138 1
     760     1140     1138 1
     761     1142     1141 1
     762     1143     1141 1
     763     1145     1144 1
     764     1146     1144 1
     765     1148     1147 1
     766     1149     1147 1
     767     1151     1150 1
     768     1152     1150 1
     769     1154     1153 1
     770     1155     1153 1
     771     1157     1156 1
     772     1158     1156 1
     773     1160     1159 1
     774     1161     1159 1
     775     1163     1162 1
     776     1164     1162 1
     777     1166     1165 1
     778     1167     1165 1
     779     1169     1168 1
     780     1170     1168 1
     781     1172     1171 1
     782     1173     1171 1
     783     1175     1174 1
     784     1176     1174 1
     785     1178     1177 1
     786     1179     1177 1
     787     1181     1180 1
     788     1182     1180 1
     789     1184     1183 1
     790     1185     1183 1
     791     1187     1186 1
     792     1188     1186 1
     793     1190     1189 1
     794     1191     1189 1
     795     1193     1192 1
     796     1194     1192 1
     797     1196     1195 1
     798     1197     1195 1
     799     1199     1198 1
     800     1200     1198 1
     801     1202     1201 1
     802     1203     1201 1
     803     1205     1204 1
     804     1206     1204 1
     805     1208     1207 1
     806     1209     1207 1
     807     1211     1210 1
     808     1212     1210 1
     809     1214     1213 1
     810     1215     1213 1
     811     1217     1216 1
     812     1218     1216 1
     813     1220     1219 1
     814     1221     1219 1
     815     1223     1222 1
     816     1224     1222 1
     817     1226     1225 1
     818     1227     1225 1
     819     1229     1228 1
     820     1230     1228 1
     821     1232     1231 1
     822     1233     1231 1
     823     1235     1234 1
     824     1236     1234 1
     825     1238     1237 1
     826     1239     1237 1
     827     1241     1240 1
     828     1242     1240 1
     829     1244     1243 1
     830     1245     1243 1
     831     1247     1246 1
     832     1248     1246 1
     833     1250     1249 1
     834     1251     1249 1
     835     1253     1252 1
     836     1254     1252 1
     837     1256     1255 1
     838     1257     1255 1
     839     1259     1258 1
     840     1260     1258 1
     841     1262     1261 1
     842     1263     1261 1
     843     1265     1264 1
     844     1266     1264 1
     845     1268     1267 1
     846     1269     1267 1
     847     1271     1270 1
     848     1272     1270 1
     849     1274     1273 1
     850     1275     1273 1
     851     1277     1276 1
     852     1278     1276 1
     853     1280     1279 1
     854     1281     1279 1
     855     1283     1282 1
     856     1284     1282 1
     857     1286     1285 1
     858     1287     1285 1
     859     1289     1288 1
     860     1290     1288 1
     861     1292     1291 1
     862     1293     1291 1
     863     1295     1294 1
     864     1296     1294 1
     865     1298     1297 1
     866     1299     1297 1
     867     1301     1300 1
     868     1302     1300 1
     869     1304     1303 1
     870     1305     1303 1
     871     1307     1306 1
     872     1308     1306 1
     873     1310     1309 1
     874     1311     1309 1
     875     1313     1312 1
     876     1314     1312 1
     877     1316     1315 1
     878     1317     1315 1
     879     1319     1318 1
     880     1320     1318 1
     881     1322     1321 1
     882     1323     1321 1
     883     1325     1324 1
     884     1326     1324 1
     885     1328     1327 1
     886     1329     1327 1
     887     1331     1330 1
     888     1332     1330 1
     889     1334     1333 1
     890     1335     1333 1
     891     1337     1336 1
     892     1338     1336 1
     893     1340     1339 1
     894     1341     1339 1
     895     1343     1342 1
     896     1344     1342 1
     897     1346     1345 1
     898     1347     1345 1
     899     1349     1348 1
     900     1350     1348 1
     901     1352     1351 1
     902     1353     1351 1
     903     1355     1354 1
     904     1356     1354 1
     905     1358     1357 1
     906     1359     1357 1
     907     1361     1360 1
     908     1362     1360 1
     909     1364     1363 1
     910     1365     1363 1
     911     1367     1366 1
     912     1368     1366 1
     913     1370     1369 1
     914     1371     1369 1
     915     1373     1372 1
     916     1374     1372 1
     917     1376     1375 1
     918     1377     1375 1
     919     1379     1378 1
     920     1380     1378 1
     921     1382     1381 1
     922     1383     1381 1
     923     1385     1384 1
     924     1386     1384 1
     925     1388     1387 1
     926     1389     1387 1
     927     1391     1390 1
     928     1392     1390 1
     929     1394     1393 1
     930     1395     1393 1
     931     1397     1396 1
     932     1398     1396 1
     933     1400     1399 1
     934     1401     1399 1
     935     1403     1402 1
     936     1404     1402 1
     937     1406     1405 1
     938     1407     1405 1
     939     1409     1408 1
     940     1410     1408 1
     941     1412     1411 1
     942     1413     1411 1
     943     1415     1414 1
     944     1416     1414 1
     945     1418     1417 1
     946     1419     1417 1
     947     1421     1420 1
     948     1422     1420 1
     949     1424     1423 1
     950     1425     1423 1
     951     1427     1426 1
     952     1428     1426 1
     953     1430     1429 1
     954     1431     1429 1
     955     1433     1432 1
     956     1434     1432 1
     957     1436     1435 1
     958     1437     1435 1
     959     1439     1438 1
     960     1440     1438 1
     961     1442     1441 1
     962     1443     1441 1
     963     1445     1444 1
     964     1446     1444 1
     965     1448     1447 1
     966     1449     1447 1
     967     1451     1450 1
     968     1452     1450 1
     969     1454     1453 1
     970     1455     1453 1
     971     1457     1456 1
     972     1458     1456 1
     973     1460     1459 1
     974     1461     1459 1
     975     1463     1462 1
     976     1464     1462 1
     977     1466     1465 1
     978     1467     1465 1
     979     1469     1468 1
     980     1470     1468 1
     981     1472     1471 1
     982     1473     1471 1
     983     1475     1474 1
     984     1476     1474 1
     985     1478     1477 1
     986     1479     1477 1
     987     1481     1480 1
     988     1482     1480 1
     989     1484     1483 1
     990     1485     1483 1
     991     1487     1486 1
     992     1488     1486 1
     993     1490     1489 1
     994     1491     1489 1
     995     1493     1492 1
     996     1494     1492 1
     997     1496     1495 1
     998     1497     1495 1
     999     1499     1498 1
    1000     1500     1498 1
    1001     1502     1501 1
    1002     1503     1501 1
    1003     1505     1504 1
    1004     1506     1504 1
    1005     1508     1507 1
    1006     1509     1507 1
    1007     1511     1510 1
    1008     1512     1510 1
    1009     1514     1513 1
    1010     1515     1513 1
    1011     1517     1516 1
    1012     1518     1516 1
    1013     1520     1519 1
    1014     1521     1519 1
    1015     1523     1522 1
    1016     1524     1522 1
    1017     1526     1525 1
    1018     1527     1525 1
    1019     1529     1528 1
    1020     1530     1528 1
    1021     1532     1531 1
    1022     1533     1531 1
    1023     1535     1534 1
    1024     1536     1534 1
    1025     1538     1537 1
    1026     1539     1537 1
    1027     1541     1540 1
    1028     1542     1540 1
    1029     1544     1543 1
    1030     1545     1543 1
    1031     1547     1546 1
    1032     1548     1546 1
    1033     1550     1549 1
    1034     1551     1549 1
    1035     1553     1552 1
    1036     1554     1552 1
    1037     1556     1555 1
    1038     1557     1555 1
    1039     1559     1558 1
    1040     1560     1558 1
    1041     1562     1561 1
    1042     1563     1561 1
    1043     1565     1564 1
    1044     1566     1564 1
    1045     1568     1567 1
    1046     1569     1567 1
    1047     1571     1570 1
    1048     1572     1570 1
    1049     1574     1573 1
    1050     1575     1573 1
    1051     1577     1576 1
    1052     1578     1576 1
    1053     1580     1579 1
    1054     1581     1579 1
    1055     1583     1582 1
    1056     1584     1582 1
    1057     1586     1585 1
    1058     1587     1585 1
    1059     1589     1588 1
    1060     1590     1588 1
    1061     1592     1591 1
    1062     1593     1591 1
    1063     1595     1594 1
    1064     1596     1594 1
    1065     1598     1597 1
    1066     1599     1597 1
    1067     1601     1600 1
    1068     1602     1600 1
    1069     1604     1603 1
    1070     1605     1603 1
    1071     1607     1606 1
    1072     1608     1606 1
    1073     1610     1609 1
    1074     1611     1609 1
    1075     1613     1612 1
    1076     1614     1612 1
    1077     1616     1615 1
    1078     1617     1615 1
    1079     1619     1618 1
    1080     1620     1618 1
    1081     1622     1621 1
    1082     1623     1621 1
    1083     1625     1624 1
    1084     1626     1624 1
    1085     1628     1627 1
    1086     1629     1627 1
    1087     1631     1630 1
    1088     1632     1630 1
    1089     1634     1633 1
    1090     1635     1633 1
    1091     1637     1636 1
    1092     1638     1636 1
    1093     1640     1639 1
    1094     1641     1639 1
    1095     1643     1642 1
    1096     1644     1642 1
    1097     1646     1645 1
    1098     1647     1645 1
    1099     1649     1648 1
    1100     1650     1648 1
    1101     1652     1651 1
    1102     1653     1651 1
    1103     1655     1654 1
    1104     1656     1654 1
    1105     1658     1657 1
    1106     1659     1657 1
    1107     1661     1660 1
    1108     1662     1660 1
    1109     1664     1663 1
    1110     1665     1663 1
    1111     1667     1666 1
    1112     1668     1666 1
    1113     1670     1669 1
    1114     1671     1669 1
    1115     1673     1672 1
    1116     1674     1672 1
    1117     1676     1675 1
    1118     1677     1675 1
    1119     1679     1678 1
    1120     1680     1678 1
    1121     1682     1681 1
    1122     1683     1681 1
    1123     1685     1684 1
    1124     1686     1684 1
    1125     1688     1687 1
    1126     1689     1687 1
    1127     1691     1690 1
    1128     1692     1690 1
    1129     1694     1693 1
    1130     1695     1693 1
    1131     1697     1696 1
    1132     1698     1696 1
    1133     1700     1699 1
    1134     1701     1699 1
    1135     1703     1702 1
    1136     1704     1702 1
    1137     1706     1705 1
    1138     1707     1705 1
    1139     1709     1708 1
    1140     1710     1708 1
    1141     1712     1711 1
    1142     1713     1711 1
    1143     1715     1714 1
    1144     1716     1714 1
    1145     1718     1717 1
    1146     1719     1717 1
    1147     1721     1720 1
    1148     1722     1720 1
    1149     1724     1723 1
    1150     1725     1723 1
    1151     1727     1726 1
    1152     1728     1726 1
    1153     1730     1729 1
    1154     1731     1729 1
    1155     1733     1732 1
    1156     1734     1732 1
    1157     1736     1735 1
    1158     1737     1735 1
    1159     1739     1738 1
    1160     1740     1738 1
    1161     1742     1741 1
    1162     1743     1741 1
    1163     1745     1744 1
    1164     1746     1744 1
    1165     1748     1747 1
    1166     1749     1747 1
    1167     1751     1750 1
    1168     1752     1750 1
    1169     1754     1753 1
    1170     1755     1753 1
    1171     1757     1756 1
    1172     1758     1756 1
    1173     1760     1759 1
    1174     1761     1759 1
    1175     1763     1762 1
    1176     1764     1762 1
    1177     1766     1765 1
    1178     1767     1765 1
    1179     1769     1768 1
    1180     1770     1768 1
    1181     1772     1771 1
    1182     1773     1771 1
    1183     1775     1774 1
    1184     1776     1774 1
    1185     1778     1777 1
    1186     1779     1777 1
    1187     1781     1780 1
    1188     1782     1780 1
    1189     1784     1783 1
    1190     1785     1783 1
    1191     1787     1786 1
    1192     1788     1786 1
    1193     1790     1789 1
    1194     1791     1789 1
    1195     1793     1792 1
    1196     1794     1792 1
    1197     1796     1795 1
    1198     1797     1795 1
    1199     1799     1798 1
    1200     1800     1798 1
    1201     1802     1801 1
    1202     1803     1801 1
    1203     1805     1804 1
    1204     1806     1804 1
    1205     1808     1807 1
    1206     1809     1807 1
    1207     1811     1810 1
    1208     1812     1810 1
    1209     1814     1813 1
    1210     1815     1813 1
    1211     1817     1816 1
    1212     1818     1816 1
    1213     1820     1819 1
    1214     1821     1819 1
    1215     1823     1822 1
    1216     1824     1822 1
    1217     1826     1825 1
    1218     1827     1825 1
    1219     1829     1828 1
    1220     1830     1828 1
    1221     1832     1831 1
    1222     1833     1831 1
    1223     1835     1834 1
    1224     1836     1834 1
    1225     1838     1837 1
    1226     1839     1837 1
    1227     1841     1840 1
    1228     1842     1840 1
    1229     1844     1843 1
    1230     1845     1843 1
    1231     1847     1846 1
    1232     1848     1846 1
    1233     1850     1849 1
    1234     1851     1849 1
    1235     1853     1852 1
    1236     1854     1852 1
    1237     1856     1855 1
    1238     1857     1855 1
    1239     1859     1858 1
    1240     1860     1858 1
    1241     1862     1861 1
    1242     1863     1861 1
    1243     1865     1864 1
    1244     1866     1864 1
    1245     1868     1867 1
    1246     1869     1867 1
    1247     1871     1870 1
    1248     1872     1870 1
    1249     1874     1873 1
    1250     1875     1873 1
    1251     1877     1876 1
    1252     1878     1876 1
    1253     1880     1879 1
    1254     1881     1879 1
    1255     1883     1882 1
    1256     1884     1882 1
    1257     1886     1885 1
    1258     1887     1885 1
    1259     1889     1888 1
    1260     1890     1888 1
    1261     1892     1891 1
    1262     1893     1891 1
    1263     1895     1894 1
    1264     1896     1894 1
    1265     1898     1897 1
    1266     1899     1897 1
    1267     1901     1900 1
    1268     1902     1900 1
    1269     1904     1903 1
    1270     1905     1903 1
    1271     1907     1906 1
    1272     1908     1906 1
    1273     1910     1909 1
    1274     1911     1909 1
    1275     1913     1912 1
    1276     1914     1912 1
    1277     1916     1915 1
    1278     1917     1915 1
    1279     1919     1918 1
    1280     1920     1918 1
    1281     1922     1921 1
    1282     1923     1921 1
    1283     1925     1924 1
    1284     1926     1924 1
    1285     1928     1927 1
    1286     1929     1927 1
    1287     1931     1930 1
    1288     1932     1930 1
    1289     1934     1933 1
    1290     1935     1933 1
    1291     1937     1936 1
    1292     1938     1936 1
    1293     1940     1939 1
    1294     1941     1939 1
    1295     1943     1942 1
    1296     1944     1942 1
    1297     1946     1945 1
    1298     1947     1945 1
    1299     1949     1948 1
    1300     1950     1948 1
    1301     1952     1951 1
    1302     1953     1951 1
    1303     1955     1954 1
    1304     1956     1954 1
    1305     1958     1957 1
    1306     1959     1957 1
    1307     1961     1960 1
    1308     1962     1960 1
    1309     1964     1963 1
    1310     1965     1963 1
    1311     1967     1966 1
    1312     1968     1966 1
    1313     1970     1969 1
    1314     1971     1969 1
    1315     1973     1972 1
    1316     1974     1972 1
    1317     1976     1975 1
    1318     1977     1975 1
    1319     1979     1978 1
    1320     1980     1978 1
    1321     1982     1981 1
    1322     1983     1981 1
    1323     1985     1984 1
    1324     1986     1984 1
    1325     1988     1987 1
    1326     1989     1987 1
    1327     1991     1990 1
    1328     1992     1990 1
    1329     1994     1993 1
    1330     1995     1993 1
    1331     1997     1996 1
    1332     1998     1996 1
    1333     2000     1999 1
    1334     2001     1999 1
    1335     2003     2002 1
    1336     2004     2002 1
    1337     2006     2005 1
    1338     2007     2005 1
    1339     2009     2008 1
    1340     2010     2008 1
    1341     2012     2011 1
    1342     2013     2011 1
    1343     2015     2014 1
    1344     2016     2014 1
    1345     2018     2017 1
    1346     2019     2017 1
    1347     2021     2020 1
    1348     2022     2020 1
    1349     2024     2023 1
    1350     2025     2023 1
    1351     2027     2026 1
    1352     2028     2026 1
    1353     2030     2029 1
    1354     2031     2029 1
    1355     2033     2032 1
    1356     2034     2032 1
    1357     2036     2035 1
    1358     2037     2035 1
    1359     2039     2038 1
    1360     2040     2038 1
    1361     2042     2041 1
    1362     2043     2041 1
    1363     2045     2044 1
    1364     2046     2044 1
    1365     2048     2047 1
    1366     2049     2047 1
    1367     2051     2050 1
    1368     2052     2050 1
    1369     2054     2053 1
    1370     2055     2053 1
    1371     2057     2056 1
    1372     2058     2056 1
    1373     2060     2059 1
    1374     2061     2059 1
    1375     2063     2062 1
    1376     2064     2062 1
    1377     2066     2065 1
    1378     2067     2065 1
    1379     2069     2068 1
    1380     2070     2068 1
    1381     2072     2071 1
    1382     2073     2071 1
    1383     2075     2074 1
    1384     2076     2074 1
    1385     2078     2077 1
    1386     2079     2077 1
    1387     2081     2080 1
    1388     2082     2080 1
    1389     2084     2083 1
    1390     2085     2083 1
    1391     2087     2086 1
    1392     2088     2086 1
    1393     2090     2089 1
    1394     2091     2089 1
    1395     2093     2092 1
    1396     2094     2092 1
    1397     2096     2095 1
    1398     2097     2095 1
    1399     2099     2098 1
    1400     2100     2098 1
    1401     2102     2101 1
    1402     2103     2101 1
    1403     2105     2104 1
    1404     2106     2104 1
    1405     2108     2107 1
    1406     2109     2107 1
    1407     2111     2110 1
    1408     2112     2110 1
    1409     2114     2113 1
    1410     2115     2113 1
    1411     2117     2116 1
    1412     2118     2116 1
    1413     2120     2119 1
    1414     2121     2119 1
    1415     2123     2122 1
    1416     2124     2122 1
    1417     2126     2125 1
    1418     2127     2125 1
    1419     2129     2128 1
    1420     2130     2128 1
    1421     2132     2131 1
    1422     2133     2131 1
    1423     2135     2134 1
    1424     2136     2134 1
    1425     2138     2137 1
    1426     2139     2137 1
    1427     2141     2140 1
    1428     2142     2140 1
    1429     2144     2143 1
    1430     2145     2143 1
    1431     2147     2146 1
    1432     2148     2146 1
    1433     2150     2149 1
    1434     2151     2149 1
    1435     2153     2152 1
    1436     2154     2152 1
    1437     2156     2155 1
    1438     2157     2155 1
    1439     2159     2158 1
    1440     2160     2158 1
    1441     2162     2161 1
    1442     2163     2161 1
    1443     2165     2164 1
    1444     2166     2164 1
    1445     2168     2167 1
    1446     2169     2167 1
    1447     2171     2170 1
    1448     2172     2170 1
    1449     2174     2173 1
    1450     2175     2173 1
    1451     2177     2176 1
    1452     2178     2176 1
    1453     2180     2179 1
    1454     2181     2179 1
    1455     2183     2182 1
    1456     2184     2182 1
    1457     2186     2185 1
    1458     2187     2185 1
    1459     2189     2188 1
    1460     2190     2188 1
    1461     2192     2191 1
    1462     2193     2191 1
    1463     2195     2194 1
    1464     2196     2194 1
    1465     2198     2197 1
    1466     2199     2197 1
    1467     2201     2200 1
    1468     2202     2200 1
    1469     2204     2203 1
    1470     2205     2203 1
    1471     2207     2206 1
    1472     2208     2206 1
    1473     2210     2209 1
    1474     2211     2209 1
    1475     2213     2212 1
    1476     2214     2212 1
    1477     2216     2215 1
    1478     2217     2215 1
    1479     2219     2218 1
    1480     2220     2218 1
    1481     2222     2221 1
    1482     2223     2221 1
    1483     2225     2224 1
    1484     2226     2224 1
    1485     2228     2227 1
    1486     2229     2227 1
    1487     2231     2230 1
    1488     2232     2230 1
    1489     2234     2233 1
    1490     2235     2233 1
    1491     2237     2236 1
    1492     2238     2236 1
    1493     2240     2239 1
    1494     2241     2239 1
    1495     2243     2242 1
    1496     2244     2242 1
    1497     2246     2245 1
    1498     2247     2245 1
    1499     2249     2248 1
    1500     2250     2248 1
    1501     2252     2251 1
    1502     2253     2251 1
    1503     2255     2254 1
    1504     2256     2254 1
    1505     2258     2257 1
    1506     2259     2257 1
    1507     2261     2260 1
    1508     2262     2260 1
    1509     2264     2263 1
    1510     2265     2263 1
    1511     2267     2266 1
    1512     2268     2266 1
    1513     2270     2269 1
    1514     2271     2269 1
    1515     2273     2272 1
    1516     2274     2272 1
    1517     2276     2275 1
    1518     2277     2275 1
    1519     2279     2278 1
    1520     2280     2278 1
    1521     2282     2281 1
    1522     2283     2281 1
    1523     2285     2284 1
    1524     2286     2284 1
    1525     2288     2287 1
    1526     2289     2287 1
    1527     2291     2290 1
    1528     2292     2290 1
    1529     2294     2293 1
    1530     2295     2293 1
    1531     2297     2296 1
    1532     2298     2296 1
    1533     2300     2299 1
    1534     2301     2299 1
    1535     2303     2302 1
    1536     2304     2302 1
    1537     2306     2305 1
    1538     2307     2305 1
    1539     2309     2308 1
    1540     2310     2308 1
    1541     2312     2311 1
    1542     2313     2311 1
    1543     2315     2314 1
    1544     2316     2314 1
    1545     2318     2317 1
    1546     2319     2317 1
    1547     2321     2320 1
    1548     2322     2320 1
    1549     2324     2323 1
    1550     2325     2323 1
    1551     2327     2326 1
    1552     2328     2326 1
    1553     2330     2329 1
    1554     2331     2329 1
    1555     2333     2332 1
    1556     2334     2332 1
    1557     2336     2335 1
    1558     2337     2335 1
    1559     2339     2338 1
    1560     2340     2338 1
    1561     2342     2341 1
    1562     2343     2341 1
    1563     2345     2344 1
    1564     2346     2344 1
    1565     2348     2347 1
    1566     2349     2347 1
    1567     2351     2350 1
    1568     2352     2350 1
    1569     2354     2353 1
    1570     2355     2353 1
    1571     2357     2356 1
    1572     2358     2356 1
    1573     2360     2359 1
    1574     2361     2359 1
    1575     2363     2362 1
    1576     2364     2362 1
    1577     2366     2365 1
    1578     2367     2365 1
    1579     2369     2368 1
    1580     2370     2368 1
    1581     2372     2371 1
    1582     2373     2371 1
    1583     2375     2374 1
    1584     2376     2374 1
    1585     2378     2377 1
    1586     2379     2377 1
    1587     2381     2380 1
    1588     2382     2380 1
    1589     2384     2383 1
    1590     2385     2383 1
    1591     2387     2386 1
    1592     2388     2386 1
    1593     2390     2389 1
    1594     2391     2389 1
    1595     2393     2392 1
    1596     2394     2392 1
    1597     2396     2395 1
    1598     2397     2395 1
    1599     2399     2398 1
    1600     2400     2398 1
    1601     2402     2401 1
    1602     2403     2401 1
    1603     2405     2404 1
    1604     2406     2404 1
    1605     2408     2407 1
    1606     2409     2407 1
    1607     2411     2410 1
    1608     2412     2410 1
    1609     2414     2413 1
    1610     2415     2413 1
    1611     2417     2416 1
    1612     2418     2416 1
    1613     2420     2419 1
    1614     2421     2419 1
    1615     2423     2422 1
    1616     2424     2422 1
    1617     2426     2425 1
    1618     2427     2425 1
    1619     2429     2428 1
    1620     2430     2428 1
    1621     2432     2431 1
    1622     2433     2431 1
    1623     2435     2434 1
    1624     2436     2434 1
    1625     2438     2437 1
    1626     2439     2437 1
    1627     2441     2440 1
    1628     2442     2440 1
    1629     2444     2443 1
    1630     2445     2443 1
    1631     2447     2446 1
    1632     2448     2446 1
    1633     2450     2449 1
    1634     2451     2449 1
    1635     2453     2452 1
    1636     2454     2452 1
    1637     2456     2455 1
    1638     2457     2455 1
    1639     2459     2458 1
    1640     2460     2458 1
    1641     2462     2461 1
    1642     2463     2461 1
    1643     2465     2464 1
    1644     2466     2464 1
    1645     2468     2467 1
    1646     2469     2467 1
    1647     2471     2470 1
    1648     2472     2470 1
    1649     2474     2473 1
    1650     2475     2473 1
    1651     2477     2476 1
    1652     2478     2476 1
    1653     2480     2479 1
    1654     2481     2479 1
    1655     2483     2482 1
    1656     2484     2482 1
    1657     2486     2485 1
    1658     2487     2485 1
    1659     2489     2488 1
    1660     2490     2488 1
    1661     2492     2491 1
    1662     2493     2491 1
    1663     2495     2494 1
    1664     2496     2494 1
    1665     2498     2497 1
    1666     2499     2497 1
    1667     2501     2500 1
    1668     2502     2500 1
    1669     2504     2503 1
    1670     2505     2503 1
    1671     2507     2506 1
    1672     2508     2506 1
    1673     2510     2509 1
    1674     2511     2509 1
    1675     2513     2512 1
    1676     2514     2512 1
    1677     2516     2515 1
    1678     2517     2515 1
    1679     2519     2518 1
    1680     2520     2518 1
    1681     2522     2521 1
    1682     2523     2521 1
    1683     2525     2524 1
    1684     2526     2524 1
    1685     2528     2527 1
    1686     2529     2527 1
    1687     2531     2530 1
    1688     2532     2530 1
    1689     2534     2533 1
    1690     2535     2533 1
    1691     2537     2536 1
    1692     2538     2536 1
    1693     2540     2539 1
    1694     2541     2539 1
    1695     2543     2542 1
    1696     2544     2542 1
    1697     2546     2545 1
    1698     2547     2545 1
    1699     2549     2548 1
    1700     2550     2548 1
    1701     2552     2551 1
    1702     2553     2551 1
    1703     2555     2554 1
    1704     2556     2554 1
    1705     2558     2557 1
    1706     2559     2557 1
    1707     2561     2560 1
    1708     2562     2560 1
    1709     2564     2563 1
    1710     2565     2563 1
    1711     2567     2566 1
    1712     2568     2566 1
    1713     2570     2569 1
    1714     2571     2569 1
    1715     2573     2572 1
    1716     2574     2572 1
    1717     2576     2575 1
    1718     2577     2575 1
    1719     2579     2578 1
    1720     2580     2578 1
    1721     2582     2581 1
    1722     2583     2581 1
    1723     2585     2584 1
    1724     2586     2584 1
    1725     2588     2587 1
    1726     2589     2587 1
    1727     2591     2590 1
    1728     2592     2590 1
    1729     2594     2593 1
    1730     2595     2593 1
    1731     2597     2596 1
    1732     2598     2596 1
    1733     2600     2599 1
    1734     2601     2599 1
    1735     2603     2602 1
    1736     2604     2602 1
    1737     2606     2605 1
    1738     2607     2605 1
    1739     2609     2608 1
    1740     2610     2608 1
    1741     2612     2611 1
    1742     2613     2611 1
    1743     2615     2614 1
    1744     2616     2614 1
    1745     2618     2617 1
    1746     2619     2617 1
    1747     2621     2620 1
    1748     2622     2620 1
    1749     2624     2623 1
    1750     2625     2623 1
    1751     2627     2626 1
    1752     2628     2626 1
    1753     2630     2629 1
    1754     2631     2629 1
    1755     2633     2632 1
    1756     2634     2632 1
    1757     2636     2635 1
    1758     2637     2635 1
    1759     2639     2638 1
    1760     2640     2638 1
    1761     2642     2641 1
    1762     2643     2641 1
    1763     2645     2644 1
    1764     2646     2644 1
    1765     2648     2647 1
    1766     2649     2647 1
    1767     2651     2650 1
    1768     2652     2650 1
    1769     2654     2653 1
    1770     2655     2653 1
    1771     2657     2656 1
    1772     2658     2656 1
    1773     2660     2659 1
    1774     2661     2659 1
    1775     2663     2662 1
    1776     2664     2662 1
    1777     2666     2665 1
    1778     2667     2665 1
    1779     2669     2668 1
    1780     2670     2668 1
    1781     2672     2671 1
    1782     2673     2671 1
    1783     2675     2674 1
    1784     2676     2674 1
    1785     2678     2677 1
    1786     2679     2677 1
    1787     2681     2680 1
    1788     2682     2680 1
    1789     2684     2683 1
    1790     2685     2683 1
    1791     2687     2686 1
    1792     2688     2686 1
    1793     2690     2689 1
    1794     2691     2689 1
    1795     2693     2692 1
    1796     2694     2692 1
    1797     2696     2695 1
    1798     2697     2695 1
    1799     2699     2698 1
    1800     2700     2698 1
    1801     2702     2701 1
    1802     2703     2701 1
    1803     2705     2704 1
    1804     2706     2704 1
    1805     2708     2707 1
    1806     2709     2707 1
    1807     2711     2710 1
    1808     2712     2710 1
    1809     2714     2713 1
    1810     2715     2713 1
    1811     2717     2716 1
    1812     2718     2716 1
    1813     2720     2719 1
    1814     2721     2719 1
    1815     2723     2722 1
    1816     2724     2722 1
    1817     2726     2725 1
    1818     2727     2725 1
    1819     2729     2728 1
    1820     2730     2728 1
    1821     2732     2731 1
    1822     2733     2731 1
    1823     2735     2734 1
    1824     2736     2734 1
    1825     2738     2737 1
    1826     2739     2737 1
    1827     2741     2740 1
    1828     2742     2740 1
    1829     2744     2743 1
    1830     2745     2743 1
    1831     2747     2746 1
    1832     2748     2746 1
    1833     2750     2749 1
    1834     2751     2749 1
    1835     2753     2752 1
    1836     2754     2752 1
    1837     2756     2755 1
    1838     2757     2755 1
    1839     2759     2758 1
    1840     2760     2758 1
    1841     2762     2761 1
    1842     2763     2761 1
    1843     2765     2764 1
    1844     2766     2764 1
    1845     2768     2767 1
    1846     2769     2767 1
    1847     2771     2770 1
    1848     2772     2770 1
    1849     2774     2773 1
    1850     2775     2773 1
    1851     2777     2776 1
    1852     2778     2776 1
    1853     2780     2779 1
    1854     2781     2779 1
    1855     2783     2782 1
    1856     2784     2782 1
    1857     2786     2785 1
    1858     2787     2785 1
    1859     2789     2788 1
    1860     2790     2788 1
    1861     2792     2791 1
    1862     2793     2791 1
    1863     2795     2794 1
    1864     2796     2794 1
    1865     2798     2797 1
    1866     2799     2797 1
    1867     2801     2800 1
    1868     2802     2800 1
    1869     2804     2803 1
    1870     2805     2803 1
    1871     2807     2806 1
    1872     2808     2806 1
    1873     2810     2809 1
    1874     2811     2809 1
    1875     2813     2812 1
    1876     2814     2812 1
    1877     2816     2815 1
    1878     2817     2815 1
    1879     2819     2818 1
    1880     2820     2818 1
    1881     2822     2821 1
    1882     2823     2821 1
    1883     2825     2824 1
    1884     2826     2824 1
    1885     2828     2827 1
    1886     2829     2827 1
    1887     2831     2830 1
    1888     2832     2830 1
    1889     2834     2833 1
    1890     2835     2833 1
    1891     2837     2836 1
    1892     2838     2836 1
    1893     2840     2839 1
    1894     2841     2839 1
    1895     2843     2842 1
    1896     2844     2842 1
    1897     2846     2845 1
    1898     2847     2845 1
    1899     2849     2848 1
    1900     2850     2848 1
    1901     2852     2851 1
    1902     2853     2851 1
    1903     2855     2854 1
    1904     2856     2854 1
    1905     2858     2857 1
    1906     2859     2857 1
    1907     2861     2860 1
    1908     2862     2860 1
    1909     2864     2863 1
    1910     2865     2863 1
    1911     2867     2866 1
    1912     2868     2866 1
    1913     2870     2869 1
    1914     2871     2869 1
    1915     2873     2872 1
    1916     2874     2872 1
    1917     2876     2875 1
    1918     2877     2875 1
    1919     2879     2878 1
    1920     2880     2878 1
    1921     2882     2881 1
    1922     2883     2881 1
    1923     2885     2884 1
    1924     2886     2884 1
    1925     2888     2887 1
    1926     2889     2887 1
    1927     2891     2890 1
    1928     2892     2890 1
    1929     2894     2893 1
    1930     2895     2893 1
    1931     2897     2896 1
    1932     2898     2896 1
    1933     2900     2899 1
    1934     2901     2899 1
    1935     2903     2902 1
    1936     2904     2902 1
    1937     2906     2905 1
    1938     2907     2905 1
    1939     2909     2908 1
    1940     2910     2908 1
    1941     2912     2911 1
    1942     2913     2911 1
    1943     2915     2914 1
    1944     2916     2914 1
    1945     2918     2917 1
    1946     2919     2917 1
    1947     2921     2920 1
    1948     2922     2920 1
    1949     2924     2923 1
    1950     2925     2923 1
    1951     2927     2926 1
    1952     2928     2926 1
    1953     2930     2929 1
    1954     2931     2929 1
    1955     2933     2932 1
    1956     2934     2932 1
    1957     2936     2935 1
    1958     2937     2935 1
    1959     2939     2938 1
    1960     2940     2938 1
    1961     2942     2941 1
    1962     2943     2941 1
    1963     2945     2944 1
    1964     2946     2944 1
    1965     2948     2947 1
    1966     2949     2947 1
    1967     2951     2950 1
    1968     2952     2950 1
    1969     2954     2953 1
    1970     2955     2953 1
    1971     2957     2956 1
    1972     2958     2956 1
    1973     2960     2959 1
    1974     2961     2959 1
    1975     2963     2962 1
    1976     2964     2962 1
    1977     2966     2965 1
    1978     2967     2965 1
    1979     2969     2968 1
    1980     2970     2968 1
    1981     2972     2971 1
    1982     2973     2971 1
    1983     2975     2974 1
    1984     2976     2974 1
    1985     2978     2977 1
    1986     2979     2977 1
    1987     2981     2980 1
    1988     2982     2980 1
    1989     2984     2983 1
    1990     2985     2983 1
    1991     2987     2986 1
    1992     2988     2986 1
    1993     2990     2989 1
    1994     2991     2989 1
    1995     2993     2992 1
    1996     2994     2992 1
    1997     2996     2995 1
    1998     2997     2995 1
    1999     2999     2998 1
    2000     3000     2998 1
    2001     3002     3001 1
    2002     3003     3001 1
    2003     3005     3004 1
    2004     3006     3004 1
    2005     3008     3007 1
    2006     3009     3007 1
    2007     3011     3010 1
    2008     3012     3010 1
    2009     3014     3013 1
    2010     3015     3013 1
    2011     3017     3016 1
    2012     3018     3016 1
    2013     3020     3019 1
    2014     3021     3019 1
    2015     3023     3022 1
    2016     3024     3022 1
    2017     3026     3025 1
    2018     3027     3025 1
    2019     3029     3028 1
    2020     3030     3028 1
    2021     3032     3031 1
    2022     3033     3031 1
    2023     3035     3034 1
    2024     3036     3034 1
    2025     3038     3037 1
    2026     3039     3037 1
    2027     3041     3040 1
    2028     3042     3040 1
    2029     3044     3043 1
    2030     3045     3043 1
    2031     3047     3046 1
    2032     3048     3046 1
    2033     3050     3049 1
    2034     3051     3049 1
    2035     3053     3052 1
    2036     3054     3052 1
    2037     3056     3055 1
    2038     3057     3055 1
    2039     3059     3058 1
    2040     3060     3058 1
    2041     3062     3061 1
    2042     3063     3061 1
    2043     3065     3064 1
    2044     3066     3064 1
    2045     3068     3067 1
    2046     3069     3067 1
    2047     3071     3070 1
    2048     3072     3070 1
    2049     3074     3073 1
    2050     3075     3073 1
    2051     3077     3076 1
    2052     3078     3076 1
    2053     3080     3079 1
    2054     3081     3079 1
    2055     3083     3082 1
    2056     3084     3082 1
    2057     3086     3085 1
    2058     3087     3085 1
    2059     3089     3088 1
    2060     3090     3088 1
    2061     3092     3091 1
    2062     3093     3091 1
    2063     3095     3094 1
    2064     3096     3094 1
    2065     3098     3097 1
    2066     3099     3097 1
    2067     3101     3100 1
    2068     3102     3100 1
    2069     3104     3103 1
    2070     3105     3103 1
    2071     3107     3106 1
    2072     3108     3106 1
    2073     3110     3109 1
    2074     3111     3109 1
    2075     3113     3112 1
    2076     3114     3112 1
    2077     3116     3115 1
    2078     3117     3115 1
    2079     3119     3118 1
    2080     3120     3118 1
    2081     3122     3121 1
    2082     3123     3121 1
    2083     3125     3124 1
    2084     3126     3124 1
    2085     3128     3127 1
    2086     3129     3127 1
    2087     3131     3130 1
    2088     3132     3130 1
    2089     3134     3133 1
    2090     3135     3133 1
    2091     3137     3136 1
    2092     3138     3136 1
    2093     3140     3139 1
    2094     3141     3139 1
    2095     3143     3142 1
    2096     3144     3142 1
    2097     3146     3145 1
    2098     3147     3145 1
    2099     3149     3148 1
    2100     3150     3148 1
    2101     3152     3151 1
    2102     3153     3151 1
    2103     3155     3154 1
    2104     3156     3154 1
    2105     3158     3157 1
    2106     3159     3157 1
    2107     3161     3160 1
    2108     3162     3160 1
    2109     3164     3163 1
    2110     3165     3163 1
    2111     3167     3166 1
    2112     3168     3166 1
    2113     3170     3169 1
    2114     3171     3169 1
    2115     3173     3172 1
    2116     3174     3172 1
    2117     3176     3175 1
    2118     3177     3175 1
    2119     3179     3178 1
    2120     3180     3178 1
    2121     3182     3181 1
    2122     3183     3181 1
    2123     3185     3184 1
    2124     3186     3184 1
    2125     3188     3187 1
    2126     3189     3187 1
    2127     3191     3190 1
    2128     3192     3190 1
    2129     3194     3193 1
    2130     3195     3193 1
    2131     3197     3196 1
    2132     3198     3196 1
    2133     3200     3199 1
    2134     3201     3199 1
    2135     3203     3202 1
    2136     3204     3202 1
    2137     3206     3205 1
    2138     3207     3205 1
    2139     3209     3208 1
    2140     3210     3208 1
    2141     3212     3211 1
    2142     3213     3211 1
    2143     3215     3214 1
    2144     3216     3214 1
    2145     3218     3217 1
    2146     3219     3217 1
    2147     3221     3220 1
    2148     3222     3220 1
    2149     3224     3223 1
    2150     3225     3223 1
    2151     3227     3226 1
    2152     3228     3226 1
    2153     3230     3229 1
    2154     3231     3229 1
    2155     3233     3232 1
    2156     3234     3232 1
    2157     3236     3235 1
    2158     3237     3235 1
    2159     3239     3238 1
    2160     3240     3238 1
    2161     3242     3241 1
    2162     3243     3241 1
    2163     3245     3244 1
    2164     3246     3244 1
    2165     3248     3247 1
    2166     3249     3247 1
    2167     3251     3250 1
    2168     3252     3250 1
    2169     3254     3253 1
    2170     3255     3253 1
    2171     3257     3256 1
    2172     3258     3256 1
    2173     3260     3259 1
    2174     3261     3259 1
    2175     3263     3262 1
    2176     3264     3262 1
    2177     3266     3265 1
    2178     3267     3265 1
    2179     3269     3268 1
    2180     3270     3268 1
    2181     3272     3271 1
    2182     3273     3271 1
    2183     3275     3274 1
    2184     3276     3274 1
    2185     3278     3277 1
    2186     3279     3277 1
    2187     3281     3280 1
    2188     3282     3280 1
    2189     3284     3283 1
    2190     3285     3283 1
    2191     3287     3286 1
    2192     3288     3286 1
    2193     3290     3289 1
    2194     3291     3289 1
    2195     3293     3292 1
    2196     3294     3292 1
    2197     3296     3295 1
    2198     3297     3295 1
    2199     3299     3298 1
    2200     3300     3298 1
@<TRIPOS>SUBSTRUCTURE
       1 RES             1 RESIDUE    0 1    ROOT      0
