@<TRIPOS>MOLECULE
RES
2400 2400 1 0 1
SMALL
NO_CHARGES
@<TRIPOS>CRYSIN
   42.1700    42.1700    42.1700    90.0000    90.0000    90.0000  1  1
@<TRIPOS>ATOM
       1 _CH         33.5742    27.6897    39.6438 CH_sp2        1 RES
       2 _CH         34.0901    26.4983    40.1677 CH_sp2        1 RES
       3 _CH         35.4182    26.1378    39.9106 CH_sp2        1 RES
       4 _CH         36.2304    26.9686    39.1295 CH_sp2        1 RES
       5 _CH         35.7146    28.1599    38.6056 CH_sp2        1 RES
       6 _CH         34.3865    28.5205    38.8627 CH_sp2        1 RES
       7 _CH         25.8080    17.0436    27.3051 CH_sp2        1 RES
       8 _CH         27.1676    17.3019    27.0937 CH_sp2        1 RES
       9 _CH         28.0698    16.2395    26.9622 CH_sp2        1 RES
      10 _CH         27.6125    14.9188    27.0421 CH_sp2        1 RES
      11 _CH         26.2529    14.6604    27.2536 CH_sp2        1 RES
      12 _CH         25.3506    15.7228    27.3851 CH_sp2        1 RES
      13 _CH         28.9209    14.9313    37.5677 CH_sp2        1 RES
      14 _CH         28.5872    15.1958    38.9013 CH_sp2        1 RES
      15 _CH         28.9990    14.3199    39.9129 CH_sp2        1 RES
      16 _CH         29.7444    13.1795    39.5908 CH_sp2        1 RES
      17 _CH         30.0782    12.9150    38.2571 CH_sp2        1 RES
      18 _CH         29.6664    13.7909    37.2456 CH_sp2        1 RES
      19 _CH         18.1026    29.2764    26.3249 CH_sp2        1 RES
      20 _CH         18.4354    30.6217    26.5237 CH_sp2        1 RES
      21 _CH         17.4366    31.6021    26.4902 CH_sp2        1 RES
      22 _CH         16.1050    31.2373    26.2580 CH_sp2        1 RES
      23 _CH         15.7723    29.8920    26.0592 CH_sp2        1 RES
      24 _CH         16.7711    28.9116    26.0927 CH_sp2        1 RES
      25 _CH         29.5978    36.5917    17.2799 CH_sp2        1 RES
      26 _CH         30.4078    35.7517    16.5063 CH_sp2        1 RES
      27 _CH         31.6045    36.2371    15.9655 CH_sp2        1 RES
      28 _CH         31.9911    37.5623    16.1983 CH_sp2        1 RES
      29 _CH         31.1811    38.4022    16.9719 CH_sp2        1 RES
      30 _CH         29.9845    37.9169    17.5127 CH_sp2        1 RES
      31 _CH         11.7696     7.8354    20.6074 CH_sp2        1 RES
      32 _CH         12.0083     8.8347    19.6564 CH_sp2        1 RES
      33 _CH         13.2880     9.3880    19.5286 CH_sp2        1 RES
      34 _CH         14.3289     8.9421    20.3517 CH_sp2        1 RES
      35 _CH         14.0902     7.9427    21.3027 CH_sp2        1 RES
      36 _CH         12.8106     7.3894    21.4306 CH_sp2        1 RES
      37 _CH          7.2317     8.1339    35.5969 CH_sp2        1 RES
      38 _CH          5.8671     7.9524    35.3419 CH_sp2        1 RES
      39 _CH          5.4302     6.8219    34.6411 CH_sp2        1 RES
      40 _CH          6.3579     5.8729    34.1953 CH_sp2        1 RES
      41 _CH          7.7225     6.0544    34.4502 CH_sp2        1 RES
      42 _CH          8.1594     7.1849    35.1510 CH_sp2        1 RES
      43 _CH         37.2057    36.2132    23.9127 CH_sp2        1 RES
      44 _CH         37.6007    37.5256    24.1980 CH_sp2        1 RES
      45 _CH         38.0932    37.8480    25.4682 CH_sp2        1 RES
      46 _CH         38.1907    36.8579    26.4532 CH_sp2        1 RES
      47 _CH         37.7957    35.5454    26.1679 CH_sp2        1 RES
      48 _CH         37.3032    35.2231    24.8977 CH_sp2        1 RES
      49 _CH         31.4294    39.8849    13.7948 CH_sp2        1 RES
      50 _CH         30.9474    38.6443    13.3605 CH_sp2        1 RES
      51 _CH         31.7688    37.5124    13.4255 CH_sp2        1 RES
      52 _CH         33.0722    37.6211    13.9248 CH_sp2        1 RES
      53 _CH         33.5542    38.8617    14.3592 CH_sp2        1 RES
      54 _CH         32.7328    39.9936    14.2942 CH_sp2        1 RES
      55 _CH         26.8232    16.5050    15.8163 CH_sp2        1 RES
      56 _CH         25.7146    16.3386    16.6549 CH_sp2        1 RES
      57 _CH         25.8764    15.7718    17.9248 CH_sp2        1 RES
      58 _CH         27.1468    15.3715    18.3561 CH_sp2        1 RES
      59 _CH         28.2553    15.5380    17.5174 CH_sp2        1 RES
      60 _CH         28.0936    16.1047    16.2475 CH_sp2        1 RES
      61 _CH         31.2188    34.2059    36.4682 CH_sp2        1 RES
      62 _CH         32.4583    34.7983    36.1988 CH_sp2        1 RES
      63 _CH         33.6116    34.3314    36.8408 CH_sp2        1 RES
      64 _CH         33.5252    33.2723    37.7522 CH_sp2        1 RES
      65 _CH         32.2856    32.6799    38.0217 CH_sp2        1 RES
      66 _CH         31.1324    33.1467    37.3797 CH_sp2        1 RES
      67 _CH         17.5809     8.8656    24.5178 CH_sp2        1 RES
      68 _CH         17.5068     8.3264    23.2279 CH_sp2        1 RES
      69 _CH         16.2597     8.1208    22.6257 CH_sp2        1 RES
      70 _CH         15.0868     8.4545    23.3134 CH_sp2        1 RES
      71 _CH         15.1609     8.9937    24.6032 CH_sp2        1 RES
      72 _CH         16.4079     9.1993    25.2054 CH_sp2        1 RES
      73 _CH          9.7752     9.2216    15.8817 CH_sp2        1 RES
      74 _CH         10.9308     9.9506    15.5767 CH_sp2        1 RES
      75 _CH         10.8838    11.3490    15.5277 CH_sp2        1 RES
      76 _CH          9.6811    12.0183    15.7836 CH_sp2        1 RES
      77 _CH          8.5255    11.2893    16.0886 CH_sp2        1 RES
      78 _CH          8.5725     9.8910    16.1376 CH_sp2        1 RES
      79 _CH         19.7748     7.8558    18.2253 CH_sp2        1 RES
      80 _CH         20.8680     8.7121    18.0475 CH_sp2        1 RES
      81 _CH         21.0500     9.8026    18.9063 CH_sp2        1 RES
      82 _CH         20.1387    10.0369    19.9430 CH_sp2        1 RES
      83 _CH         19.0455     9.1805    20.1208 CH_sp2        1 RES
      84 _CH         18.8635     8.0900    19.2620 CH_sp2        1 RES
      85 _CH         24.8089    33.3564    19.5653 CH_sp2        1 RES
      86 _CH         25.7701    32.4177    19.1717 CH_sp2        1 RES
      87 _CH         25.4405    31.0581    19.1197 CH_sp2        1 RES
      88 _CH         24.1498    30.6371    19.4614 CH_sp2        1 RES
      89 _CH         23.1886    31.5758    19.8551 CH_sp2        1 RES
      90 _CH         23.5181    32.9355    19.9070 CH_sp2        1 RES
      91 _CH          4.0771    21.4787    10.6152 CH_sp2        1 RES
      92 _CH          5.1003    21.2121    11.5328 CH_sp2        1 RES
      93 _CH          6.0872    22.1739    11.7799 CH_sp2        1 RES
      94 _CH          6.0509    23.4023    11.1093 CH_sp2        1 RES
      95 _CH          5.0277    23.6689    10.1916 CH_sp2        1 RES
      96 _CH          4.0409    22.7071     9.9446 CH_sp2        1 RES
      97 _CH         13.0071     5.2995    20.0761 CH_sp2        1 RES
      98 _CH         13.0900     3.9019    20.0785 CH_sp2        1 RES
      99 _CH         14.3414     3.2750    20.1091 CH_sp2        1 RES
     100 _CH         15.5099     4.0456    20.1374 CH_sp2        1 RES
     101 _CH         15.4270     5.4432    20.1351 CH_sp2        1 RES
     102 _CH         14.1756     6.0701    20.1045 CH_sp2        1 RES
     103 _CH         18.9387    17.7677    27.7260 CH_sp2        1 RES
     104 _CH         17.8814    17.5951    26.8247 CH_sp2        1 RES
     105 _CH         17.1841    18.7090    26.3421 CH_sp2        1 RES
     106 _CH         17.5440    19.9955    26.7609 CH_sp2        1 RES
     107 _CH         18.6012    20.1681    27.6622 CH_sp2        1 RES
     108 _CH         19.2986    19.0542    28.1448 CH_sp2        1 RES
     109 _CH         19.8769    36.7120    35.0671 CH_sp2        1 RES
     110 _CH         20.7734    36.5344    36.1276 CH_sp2        1 RES
     111 _CH         21.2405    37.6438    36.8425 CH_sp2        1 RES
     112 _CH         20.8112    38.9307    36.4969 CH_sp2        1 RES
     113 _CH         19.9147    39.1083    35.4363 CH_sp2        1 RES
     114 _CH         19.4476    37.9989    34.7214 CH_sp2        1 RES
     115 _CH         11.2046    32.9403    19.1421 CH_sp2        1 RES
     116 _CH         11.2760    31.6185    19.5979 CH_sp2        1 RES
     117 _CH         10.5690    30.6096    18.9330 CH_sp2        1 RES
     118 _CH          9.7906    30.9225    17.8122 CH_sp2        1 RES
     119 _CH          9.7192    32.2442    17.3563 CH_sp2        1 RES
     120 _CH         10.4262    33.2532    18.0213 CH_sp2        1 RES
     121 _CH         32.9102    30.5273    24.9486 CH_sp2        1 RES
     122 _CH         32.0357    30.4133    23.8613 CH_sp2        1 RES
     123 _CH         30.9597    31.2996    23.7324 CH_sp2        1 RES
     124 _CH         30.7580    32.2999    24.6909 CH_sp2        1 RES
     125 _CH         31.6325    32.4139    25.7783 CH_sp2        1 RES
     126 _CH         32.7085    31.5276    25.9072 CH_sp2        1 RES
     127 _CH          2.0088    31.0525     7.5875 CH_sp2        1 RES
     128 _CH          2.9711    31.9722     8.0212 CH_sp2        1 RES
     129 _CH          4.2984    31.5646     8.2002 CH_sp2        1 RES
     130 _CH          4.6634    30.2372     7.9453 CH_sp2        1 RES
     131 _CH          3.7011    29.3175     7.5116 CH_sp2        1 RES
     132 _CH          2.3738    29.7252     7.3327 CH_sp2        1 RES
     133 _CH         12.9432    13.0553     3.5646 CH_sp2        1 RES
     134 _CH         14.1709    12.6116     4.0706 CH_sp2        1 RES
     135 _CH         14.3875    11.2449     4.2832 CH_sp2        1 RES
     136 _CH         13.3766    10.3219     3.9898 CH_sp2        1 RES
     137 _CH         12.1489    10.7657     3.4837 CH_sp2        1 RES
     138 _CH         11.9323    12.1324     3.2711 CH_sp2        1 RES
     139 _CH         16.5475    15.5358     3.9372 CH_sp2        1 RES
     140 _CH         16.6253    16.7692     3.2795 CH_sp2        1 RES
     141 _CH         15.9267    17.8745     3.7796 CH_sp2        1 RES
     142 _CH         15.1503    17.7465     4.9375 CH_sp2        1 RES
     143 _CH         15.0724    16.5130     5.5953 CH_sp2        1 RES
     144 _CH         15.7710    15.4077     5.0951 CH_sp2        1 RES
     145 _CH          8.4942    14.9353     8.9107 CH_sp2        1 RES
     146 _CH          9.7910    14.5326     9.2517 CH_sp2        1 RES
     147 _CH         10.0239    13.2258     9.6966 CH_sp2        1 RES
     148 _CH          8.9601    12.3217     9.8007 CH_sp2        1 RES
     149 _CH          7.6633    12.7244     9.4597 CH_sp2        1 RES
     150 _CH          7.4304    14.0312     9.0148 CH_sp2        1 RES
     151 _CH         18.0221    25.9278    32.4049 CH_sp2        1 RES
     152 _CH         18.9854    25.1918    31.7046 CH_sp2        1 RES
     153 _CH         19.9444    24.4497    32.4043 CH_sp2        1 RES
     154 _CH         19.9401    24.4434    33.8042 CH_sp2        1 RES
     155 _CH         18.9768    25.1794    34.5046 CH_sp2        1 RES
     156 _CH         18.0178    25.9215    33.8049 CH_sp2        1 RES
     157 _CH         12.7095    23.1905    28.5310 CH_sp2        1 RES
     158 _CH         13.9009    22.4559    28.5571 CH_sp2        1 RES
     159 _CH         13.8619    21.0571    28.5139 CH_sp2        1 RES
     160 _CH         12.6314    20.3930    28.4447 CH_sp2        1 RES
     161 _CH         11.4399    21.1276    28.4187 CH_sp2        1 RES
     162 _CH         11.4790    22.5264    28.4618 CH_sp2        1 RES
     163 _CH         15.8589     8.9347    37.7462 CH_sp2        1 RES
     164 _CH         16.5576     9.0368    38.9551 CH_sp2        1 RES
     165 _CH         15.8563     9.1502    40.1615 CH_sp2        1 RES
     166 _CH         14.4564     9.1614    40.1590 CH_sp2        1 RES
     167 _CH         13.7577     9.0593    38.9501 CH_sp2        1 RES
     168 _CH         14.4589     8.9459    37.7437 CH_sp2        1 RES
     169 _CH          5.2643    19.3897     2.7932 CH_sp2        1 RES
     170 _CH          6.0437    19.0779     3.9137 CH_sp2        1 RES
     171 _CH          7.1367    19.8844     4.2524 CH_sp2        1 RES
     172 _CH          7.4504    21.0027     3.4708 CH_sp2        1 RES
     173 _CH          6.6710    21.3145     2.3504 CH_sp2        1 RES
     174 _CH          5.5780    20.5080     2.0116 CH_sp2        1 RES
     175 _CH         35.3314    12.9909    17.6855 CH_sp2        1 RES
     176 _CH         35.0910    14.0542    18.5639 CH_sp2        1 RES
     177 _CH         33.9139    14.0841    19.3213 CH_sp2        1 RES
     178 _CH         32.9773    13.0506    19.2004 CH_sp2        1 RES
     179 _CH         33.2177    11.9872    18.3220 CH_sp2        1 RES
     180 _CH         34.3947    11.9574    17.5646 CH_sp2        1 RES
     181 _CH          4.4464    24.5132    18.7745 CH_sp2        1 RES
     182 _CH          4.8582    24.7058    20.0986 CH_sp2        1 RES
     183 _CH          3.9239    24.6385    21.1391 CH_sp2        1 RES
     184 _CH          2.5778    24.3786    20.8554 CH_sp2        1 RES
     185 _CH          2.1660    24.1859    19.5313 CH_sp2        1 RES
     186 _CH          3.1003    24.2532    18.4908 CH_sp2        1 RES
     187 _CH         13.6945    29.6895    38.1068 CH_sp2        1 RES
     188 _CH         14.0984    29.4038    36.7971 CH_sp2        1 RES
     189 _CH         15.2321    30.0273    36.2624 CH_sp2        1 RES
     190 _CH         15.9619    30.9367    37.0373 CH_sp2        1 RES
     191 _CH         15.5580    31.2224    38.3469 CH_sp2        1 RES
     192 _CH         14.4244    30.5989    38.8817 CH_sp2        1 RES
     193 _CH         16.3260    24.5318    12.0037 CH_sp2        1 RES
     194 _CH         15.7166    25.7797    11.8265 CH_sp2        1 RES
     195 _CH         16.4884    26.9471    11.8630 CH_sp2        1 RES
     196 _CH         17.8696    26.8667    12.0767 CH_sp2        1 RES
     197 _CH         18.4791    25.6188    12.2540 CH_sp2        1 RES
     198 _CH         17.7072    24.4514    12.2175 CH_sp2        1 RES
     199 _CH         24.4703    33.2732    28.1678 CH_sp2        1 RES
     200 _CH         25.8101    33.5019    28.5035 CH_sp2        1 RES
     201 _CH         26.7778    32.5300    28.2225 CH_sp2        1 RES
     202 _CH         26.4057    31.3295    27.6057 CH_sp2        1 RES
     203 _CH         25.0660    31.1009    27.2700 CH_sp2        1 RES
     204 _CH         24.0982    32.0727    27.5511 CH_sp2        1 RES
     205 _CH         15.9677    11.1626    27.3283 CH_sp2        1 RES
     206 _CH         16.9284    11.4528    26.3522 CH_sp2        1 RES
     207 _CH         16.5460    11.5897    25.0125 CH_sp2        1 RES
     208 _CH         15.2028    11.4363    24.6487 CH_sp2        1 RES
     209 _CH         14.2420    11.1461    25.6248 CH_sp2        1 RES
     210 _CH         14.6245    11.0092    26.9646 CH_sp2        1 RES
     211 _CH         36.6631     6.9066    14.5093 CH_sp2        1 RES
     212 _CH         36.3532     5.5413    14.5136 CH_sp2        1 RES
     213 _CH         35.0160     5.1271    14.5366 CH_sp2        1 RES
     214 _CH         33.9889     6.0782    14.5552 CH_sp2        1 RES
     215 _CH         34.2988     7.4435    14.5508 CH_sp2        1 RES
     216 _CH         35.6360     7.8576    14.5279 CH_sp2        1 RES
     217 _CH          4.2219     9.4760    30.3636 CH_sp2        1 RES
     218 _CH          5.3380     9.6488    31.1908 CH_sp2        1 RES
     219 _CH          6.1230     8.5456    31.5469 CH_sp2        1 RES
     220 _CH          5.7917     7.2695    31.0757 CH_sp2        1 RES
     221 _CH          4.6756     7.0967    30.2485 CH_sp2        1 RES
     222 _CH          3.8906     8.2000    29.8924 CH_sp2        1 RES
     223 _CH         27.5792    18.8889    21.4928 CH_sp2        1 RES
     224 _CH         26.4939    18.5979    20.6576 CH_sp2        1 RES
     225 _CH         26.7001    17.9094    19.4562 CH_sp2        1 RES
     226 _CH         27.9916    17.5119    19.0900 CH_sp2        1 RES
     227 _CH         29.0768    17.8029    19.9252 CH_sp2        1 RES
     228 _CH         28.8706    18.4914    21.1266 CH_sp2        1 RES
     229 _CH         14.3212    33.1887     9.6966 CH_sp2        1 RES
     230 _CH         13.3298    32.7024     8.8360 CH_sp2        1 RES
     231 _CH         12.6938    31.4872     9.1167 CH_sp2        1 RES
     232 _CH         13.0491    30.7584    10.2579 CH_sp2        1 RES
     233 _CH         14.0405    31.2447    11.1185 CH_sp2        1 RES
     234 _CH         14.6765    32.4599    10.8379 CH_sp2        1 RES
     235 _CH         21.0227    25.1757    21.0836 CH_sp2        1 RES
     236 _CH         20.8166    25.3750    22.4539 CH_sp2        1 RES
     237 _CH         19.8639    24.6097    23.1371 CH_sp2        1 RES
     238 _CH         19.1174    23.6451    22.4499 CH_sp2        1 RES
     239 _CH         19.3235    23.4457    21.0796 CH_sp2        1 RES
     240 _CH         20.2762    24.2110    20.3965 CH_sp2        1 RES
     241 _CH         25.4359    32.3013    14.7412 CH_sp2        1 RES
     242 _CH         24.4521    32.3982    13.7499 CH_sp2        1 RES
     243 _CH         23.3746    33.2764    13.9164 CH_sp2        1 RES
     244 _CH         23.2810    34.0578    15.0743 CH_sp2        1 RES
     245 _CH         24.2648    33.9609    16.0657 CH_sp2        1 RES
     246 _CH         25.3423    33.0826    15.8991 CH_sp2        1 RES
     247 _CH         38.1155    24.4376    11.7130 CH_sp2        1 RES
     248 _CH         36.9085    24.9047    12.2469 CH_sp2        1 RES
     249 _CH         36.7398    26.2700    12.5067 CH_sp2        1 RES
     250 _CH         37.7781    27.1682    12.2326 CH_sp2        1 RES
     251 _CH         38.9851    26.7011    11.6987 CH_sp2        1 RES
     252 _CH         39.1538    25.3358    11.4389 CH_sp2        1 RES
     253 _CH          8.8268     3.1806    31.5667 CH_sp2        1 RES
     254 _CH          9.9071     4.0709    31.5869 CH_sp2        1 RES
     255 _CH          9.6830     5.4392    31.7805 CH_sp2        1 RES
     256 _CH          8.3786     5.9173    31.9540 CH_sp2        1 RES
     257 _CH          7.2984     5.0270    31.9338 CH_sp2        1 RES
     258 _CH          7.5225     3.6587    31.7401 CH_sp2        1 RES
     259 _CH         33.4662    36.7955    34.8394 CH_sp2        1 RES
     260 _CH         32.7321    37.9729    34.6521 CH_sp2        1 RES
     261 _CH         33.3237    39.0737    34.0210 CH_sp2        1 RES
     262 _CH         34.6492    38.9971    33.5772 CH_sp2        1 RES
     263 _CH         35.3833    37.8198    33.7644 CH_sp2        1 RES
     264 _CH         34.7917    36.7190    34.3956 CH_sp2        1 RES
     265 _CH         34.6078    34.9007    10.6389 CH_sp2        1 RES
     266 _CH         35.5752    34.2604    11.4225 CH_sp2        1 RES
     267 _CH         35.2771    33.8916    12.7398 CH_sp2        1 RES
     268 _CH         34.0115    34.1631    13.2733 CH_sp2        1 RES
     269 _CH         33.0441    34.8034    12.4897 CH_sp2        1 RES
     270 _CH         33.3423    35.1722    11.1724 CH_sp2        1 RES
     271 _CH         26.9246    22.0126    30.0826 CH_sp2        1 RES
     272 _CH         27.2117    23.3317    29.7118 CH_sp2        1 RES
     273 _CH         26.4614    23.9557    28.7080 CH_sp2        1 RES
     274 _CH         25.4239    23.2606    28.0751 CH_sp2        1 RES
     275 _CH         25.1369    21.9415    28.4459 CH_sp2        1 RES
     276 _CH         25.8872    21.3175    29.4497 CH_sp2        1 RES
     277 _CH         28.9520    38.2201     8.9526 CH_sp2        1 RES
     278 _CH         28.2916    39.4541     8.9204 CH_sp2        1 RES
     279 _CH         27.4012    39.7447     7.8798 CH_sp2        1 RES
     280 _CH         27.1712    38.8011     6.8714 CH_sp2        1 RES
     281 _CH         27.8316    37.5671     6.9035 CH_sp2        1 RES
     282 _CH         28.7220    37.2766     7.9441 CH_sp2        1 RES
     283 _CH         21.0845     5.3623    15.0857 CH_sp2        1 RES
     284 _CH         19.7337     5.6599    14.8693 CH_sp2        1 RES
     285 _CH         19.3768     6.7272    14.0366 CH_sp2        1 RES
     286 _CH         20.3706     7.4970    13.4203 CH_sp2        1 RES
     287 _CH         21.7214     7.1994    13.6368 CH_sp2        1 RES
     288 _CH         22.0783     6.1320    14.4695 CH_sp2        1 RES
     289 _CH          9.9023    17.8267    29.3917 CH_sp2        1 RES
     290 _CH         10.9655    18.0787    28.5165 CH_sp2        1 RES
     291 _CH         10.8938    19.1501    27.6181 CH_sp2        1 RES
     292 _CH          9.7587    19.9693    27.5948 CH_sp2        1 RES
     293 _CH          8.6955    19.7172    28.4700 CH_sp2        1 RES
     294 _CH          8.7672    18.6459    29.3684 CH_sp2        1 RES
     295 _CH         11.4800    15.6732    21.1403 CH_sp2        1 RES
     296 _CH         10.1103    15.7940    21.4037 CH_sp2        1 RES
     297 _CH          9.1749    15.2988    20.4872 CH_sp2        1 RES
     298 _CH          9.6092    14.6828    19.3074 CH_sp2        1 RES
     299 _CH         10.9789    14.5621    19.0440 CH_sp2        1 RES
     300 _CH         11.9143    15.0573    19.9605 CH_sp2        1 RES
     301 _CH         19.7812    10.2125    15.0972 CH_sp2        1 RES
     302 _CH         21.0545     9.6342    15.1616 CH_sp2        1 RES
     303 _CH         22.0268     9.9748    14.2137 CH_sp2        1 RES
     304 _CH         21.7258    10.8938    13.2013 CH_sp2        1 RES
     305 _CH         20.4524    11.4722    13.1369 CH_sp2        1 RES
     306 _CH         19.4801    11.1315    14.0849 CH_sp2        1 RES
     307 _CH         35.4156    23.9767    23.7671 CH_sp2        1 RES
     308 _CH         34.2180    24.6985    23.6991 CH_sp2        1 RES
     309 _CH         33.5895    25.1242    24.8755 CH_sp2        1 RES
     310 _CH         34.1587    24.8281    26.1198 CH_sp2        1 RES
     311 _CH         35.3564    24.1063    26.1877 CH_sp2        1 RES
     312 _CH         35.9848    23.6806    25.0114 CH_sp2        1 RES
     313 _CH         13.5977    27.0010    20.8648 CH_sp2        1 RES
     314 _CH         13.7370    28.1024    20.0119 CH_sp2        1 RES
     315 _CH         14.7952    28.1494    19.0965 CH_sp2        1 RES
     316 _CH         15.7142    27.0951    19.0341 CH_sp2        1 RES
     317 _CH         15.5749    25.9937    19.8870 CH_sp2        1 RES
     318 _CH         14.5167    25.9466    20.8024 CH_sp2        1 RES
     319 _CH         28.6546    37.2586    23.6278 CH_sp2        1 RES
     320 _CH         30.0267    37.3084    23.3538 CH_sp2        1 RES
     321 _CH         30.6162    38.5115    22.9478 CH_sp2        1 RES
     322 _CH         29.8337    39.6649    22.8156 CH_sp2        1 RES
     323 _CH         28.4617    39.6151    23.0896 CH_sp2        1 RES
     324 _CH         27.8721    38.4119    23.4956 CH_sp2        1 RES
     325 _CH         17.4721     7.0092    37.6170 CH_sp2        1 RES
     326 _CH         17.6802     5.6263    37.6840 CH_sp2        1 RES
     327 _CH         18.8939     5.1237    38.1678 CH_sp2        1 RES
     328 _CH         19.8997     6.0039    38.5847 CH_sp2        1 RES
     329 _CH         19.6916     7.3867    38.5178 CH_sp2        1 RES
     330 _CH         18.4778     7.8893    38.0340 CH_sp2        1 RES
     331 _CH         32.8277    21.5376    29.6151 CH_sp2        1 RES
     332 _CH         33.0926    22.7184    30.3191 CH_sp2        1 RES
     333 _CH         34.3872    23.2512    30.3302 CH_sp2        1 RES
     334 _CH         35.4169    22.6033    29.6374 CH_sp2        1 RES
     335 _CH         35.1519    21.4225    28.9334 CH_sp2        1 RES
     336 _CH         33.8574    20.8897    28.9223 CH_sp2        1 RES
     337 _CH         16.0909    21.6336    27.6549 CH_sp2        1 RES
     338 _CH         15.3581    20.8152    26.7870 CH_sp2        1 RES
     339 _CH         14.3916    21.3769    25.9442 CH_sp2        1 RES
     340 _CH         14.1579    22.7570    25.9693 CH_sp2        1 RES
     341 _CH         14.8907    23.5754    26.8371 CH_sp2        1 RES
     342 _CH         15.8572    23.0137    27.6800 CH_sp2        1 RES
     343 _CH         12.5739    32.8331    26.0086 CH_sp2        1 RES
     344 _CH         13.8500    33.3342    25.7251 CH_sp2        1 RES
     345 _CH         14.1253    33.8752    24.4635 CH_sp2        1 RES
     346 _CH         13.1244    33.9149    23.4854 CH_sp2        1 RES
     347 _CH         11.8483    33.4138    23.7689 CH_sp2        1 RES
     348 _CH         11.5730    32.8728    25.0305 CH_sp2        1 RES
     349 _CH         17.2468    32.2991    35.7479 CH_sp2        1 RES
     350 _CH         17.0897    33.6296    36.1541 CH_sp2        1 RES
     351 _CH         16.1040    34.4299    35.5642 CH_sp2        1 RES
     352 _CH         15.2754    33.8996    34.5681 CH_sp2        1 RES
     353 _CH         15.4325    32.5691    34.1619 CH_sp2        1 RES
     354 _CH         16.4182    31.7688    34.7518 CH_sp2        1 RES
     355 _CH         24.2058    19.5310    38.4496 CH_sp2        1 RES
     356 _CH         25.0480    20.4416    39.0988 CH_sp2        1 RES
     357 _CH         26.4308    20.2236    39.1204 CH_sp2        1 RES
     358 _CH         26.9713    19.0949    38.4927 CH_sp2        1 RES
     359 _CH         26.1291    18.1843    37.8435 CH_sp2        1 RES
     360 _CH         24.7463    18.4024    37.8219 CH_sp2        1 RES
     361 _CH          8.1623    32.1662    15.6848 CH_sp2        1 RES
     362 _CH          7.6583    33.4491    15.9304 CH_sp2        1 RES
     363 _CH          6.5172    33.6126    16.7248 CH_sp2        1 RES
     364 _CH          5.8800    32.4933    17.2736 CH_sp2        1 RES
     365 _CH          6.3840    31.2105    17.0280 CH_sp2        1 RES
     366 _CH          7.5251    31.0469    16.2336 CH_sp2        1 RES
     367 _CH         26.7287    22.1488    35.6029 CH_sp2        1 RES
     368 _CH         25.7763    23.1645    35.4582 CH_sp2        1 RES
     369 _CH         24.4119    22.8619    35.5419 CH_sp2        1 RES
     370 _CH         24.0001    21.5435    35.7703 CH_sp2        1 RES
     371 _CH         24.9526    20.5277    35.9150 CH_sp2        1 RES
     372 _CH         26.3169    20.8303    35.8313 CH_sp2        1 RES
     373 _CH         21.3049    11.1272     3.2383 CH_sp2        1 RES
     374 _CH         22.1812    10.3586     2.4628 CH_sp2        1 RES
     375 _CH         23.5583    10.6065     2.5095 CH_sp2        1 RES
     376 _CH         24.0590    11.6230     3.3317 CH_sp2        1 RES
     377 _CH         23.1827    12.3916     4.1072 CH_sp2        1 RES
     378 _CH         21.8057    12.1437     4.0605 CH_sp2        1 RES
     379 _CH         36.1376    31.8450    17.9941 CH_sp2        1 RES
     380 _CH         36.2238    33.2412    17.9387 CH_sp2        1 RES
     381 _CH         37.4751    33.8676    17.9834 CH_sp2        1 RES
     382 _CH         38.6401    33.0977    18.0836 CH_sp2        1 RES
     383 _CH         38.5538    31.7014    18.1390 CH_sp2        1 RES
     384 _CH         37.3026    31.0751    18.0942 CH_sp2        1 RES
     385 _CH         28.7979     9.6532    27.1165 CH_sp2        1 RES
     386 _CH         27.7247     8.7549    27.1534 CH_sp2        1 RES
     387 _CH         26.4099     9.2354    27.1690 CH_sp2        1 RES
     388 _CH         26.1682    10.6142    27.1477 CH_sp2        1 RES
     389 _CH         27.2414    11.5125    27.1108 CH_sp2        1 RES
     390 _CH         28.5563    11.0320    27.0952 CH_sp2        1 RES
     391 _CH         28.9081     2.8884    39.0007 CH_sp2        1 RES
     392 _CH         28.1555     2.0084    38.2139 CH_sp2        1 RES
     393 _CH         26.8710     2.3712    37.7914 CH_sp2        1 RES
     394 _CH         26.3392     3.6139    38.1558 CH_sp2        1 RES
     395 _CH         27.0919     4.4939    38.9427 CH_sp2        1 RES
     396 _CH         28.3763     4.1311    39.3651 CH_sp2        1 RES
     397 _CH         35.4916    26.0459    34.6714 CH_sp2        1 RES
     398 _CH         34.6945    24.8950    34.6685 CH_sp2        1 RES
     399 _CH         35.2926    23.6293    34.6699 CH_sp2        1 RES
     400 _CH         36.6879    23.5144    34.6742 CH_sp2        1 RES
     401 _CH         37.4850    24.6653    34.6770 CH_sp2        1 RES
     402 _CH         36.8869    25.9311    34.6756 CH_sp2        1 RES
     403 _CH         21.4337    35.9800    28.8750 CH_sp2        1 RES
     404 _CH         21.5875    36.0882    27.4876 CH_sp2        1 RES
     405 _CH         22.8132    35.7673    26.8921 CH_sp2        1 RES
     406 _CH         23.8850    35.3382    27.6839 CH_sp2        1 RES
     407 _CH         23.7313    35.2300    29.0712 CH_sp2        1 RES
     408 _CH         22.5056    35.5509    29.6667 CH_sp2        1 RES
     409 _CH         38.1127    11.8129    36.0120 CH_sp2        1 RES
     410 _CH         37.2686    12.5093    36.8853 CH_sp2        1 RES
     411 _CH         36.0300    11.9646    37.2447 CH_sp2        1 RES
     412 _CH         35.6355    10.7235    36.7309 CH_sp2        1 RES
     413 _CH         36.4796    10.0271    35.8576 CH_sp2        1 RES
     414 _CH         37.7182    10.5718    35.4982 CH_sp2        1 RES
     415 _CH         27.9911    37.0985    14.9784 CH_sp2        1 RES
     416 _CH         26.6632    37.4241    15.2794 CH_sp2        1 RES
     417 _CH         25.6864    36.4216    15.3100 CH_sp2        1 RES
     418 _CH         26.0375    35.0936    15.0395 CH_sp2        1 RES
     419 _CH         27.3654    34.7681    14.7384 CH_sp2        1 RES
     420 _CH         28.3422    35.7705    14.7079 CH_sp2        1 RES
     421 _CH          8.9700     8.2575    13.3980 CH_sp2        1 RES
     422 _CH          9.3269     6.9232    13.1696 CH_sp2        1 RES
     423 _CH          8.4465     5.8930    13.5214 CH_sp2        1 RES
     424 _CH          7.2093     6.1972    14.1016 CH_sp2        1 RES
     425 _CH          6.8523     7.5315    14.3300 CH_sp2        1 RES
     426 _CH          7.7327     8.5617    13.9782 CH_sp2        1 RES
     427 _CH          9.2600    22.7152    30.8838 CH_sp2        1 RES
     428 _CH          8.1676    21.8397    30.8851 CH_sp2        1 RES
     429 _CH          8.3796    20.4558    30.8867 CH_sp2        1 RES
     430 _CH          9.6841    19.9475    30.8869 CH_sp2        1 RES
     431 _CH         10.7765    20.8230    30.8856 CH_sp2        1 RES
     432 _CH         10.5645    22.2069    30.8841 CH_sp2        1 RES
     433 _CH         20.8568     9.5989     6.7641 CH_sp2        1 RES
     434 _CH         22.2552     9.5623     6.8210 CH_sp2        1 RES
     435 _CH         22.9273    10.1448     7.9022 CH_sp2        1 RES
     436 _CH         22.2010    10.7638     8.9266 CH_sp2        1 RES
     437 _CH         20.8026    10.8004     8.8697 CH_sp2        1 RES
     438 _CH         20.1305    10.2179     7.7885 CH_sp2        1 RES
     439 _CH         36.7705     9.2220    16.2887 CH_sp2        1 RES
     440 _CH         38.0407     8.7646    15.9180 CH_sp2        1 RES
     441 _CH         39.1082     9.6652    15.8210 CH_sp2        1 RES
     442 _CH         38.9054    11.0231    16.0946 CH_sp2        1 RES
     443 _CH         37.6352    11.4805    16.4653 CH_sp2        1 RES
     444 _CH         36.5677    10.5799    16.5623 CH_sp2        1 RES
     445 _CH         22.5543    21.4294    19.9835 CH_sp2        1 RES
     446 _CH         21.9906    22.3247    20.9004 CH_sp2        1 RES
     447 _CH         22.7907    23.2982    21.5105 CH_sp2        1 RES
     448 _CH         24.1544    23.3763    21.2038 CH_sp2        1 RES
     449 _CH         24.7181    22.4809    20.2870 CH_sp2        1 RES
     450 _CH         23.9180    21.5075    19.6768 CH_sp2        1 RES
     451 _CH         27.5697    29.1095     2.3641 CH_sp2        1 RES
     452 _CH         28.4755    30.0027     2.9488 CH_sp2        1 RES
     453 _CH         28.0360    30.9093     3.9209 CH_sp2        1 RES
     454 _CH         26.6907    30.9227     4.3083 CH_sp2        1 RES
     455 _CH         25.7850    30.0296     3.7237 CH_sp2        1 RES
     456 _CH         26.2244    29.1230     2.7516 CH_sp2        1 RES
     457 _CH         19.1349    15.5555     2.7481 CH_sp2        1 RES
     458 _CH         18.8609    15.6084     4.1200 CH_sp2        1 RES
     459 _CH         18.8000    16.8445     4.7745 CH_sp2        1 RES
     460 _CH         19.0131    18.0277     4.0571 CH_sp2        1 RES
     461 _CH         19.2872    17.9748     2.6852 CH_sp2        1 RES
     462 _CH         19.3481    16.7387     2.0307 CH_sp2        1 RES
     463 _CH         13.7158    30.6805    17.0492 CH_sp2        1 RES
     464 _CH         14.7108    30.9712    16.1081 CH_sp2        1 RES
     465 _CH         14.9299    32.2946    15.7073 CH_sp2        1 RES
     466 _CH         14.1542    33.3272    16.2475 CH_sp2        1 RES
     467 _CH         13.1593    33.0365    17.1886 CH_sp2        1 RES
     468 _CH         12.9401    31.7131    17.5894 CH_sp2        1 RES
     469 _CH          6.2710    19.8939    21.9504 CH_sp2        1 RES
     470 _CH          5.1118    19.2742    21.4685 CH_sp2        1 RES
     471 _CH          5.2081    18.2574    20.5109 CH_sp2        1 RES
     472 _CH          6.4636    17.8603    20.0354 CH_sp2        1 RES
     473 _CH          7.6227    18.4800    20.5174 CH_sp2        1 RES
     474 _CH          7.5265    19.4968    21.4749 CH_sp2        1 RES
     475 _CH         12.6089    19.8174    34.9354 CH_sp2        1 RES
     476 _CH         13.9035    19.6570    34.4273 CH_sp2        1 RES
     477 _CH         14.1110    18.9059    33.2642 CH_sp2        1 RES
     478 _CH         13.0238    18.3152    32.6092 CH_sp2        1 RES
     479 _CH         11.7291    18.4756    33.1173 CH_sp2        1 RES
     480 _CH         11.5217    19.2267    34.2804 CH_sp2        1 RES
     481 _CH         16.9797    19.0028     9.7547 CH_sp2        1 RES
     482 _CH         15.9861    18.2716     9.0929 CH_sp2        1 RES
     483 _CH         16.2490    16.9666     8.6593 CH_sp2        1 RES
     484 _CH         17.5055    16.3929     8.8877 CH_sp2        1 RES
     485 _CH         18.4990    17.1242     9.5496 CH_sp2        1 RES
     486 _CH         18.2361    18.4291     9.9831 CH_sp2        1 RES
     487 _CH         36.2087     7.0622    28.9956 CH_sp2        1 RES
     488 _CH         36.4271     8.2909    29.6302 CH_sp2        1 RES
     489 _CH         36.5951     8.3412    31.0192 CH_sp2        1 RES
     490 _CH         36.5448     7.1628    31.7735 CH_sp2        1 RES
     491 _CH         36.3264     5.9342    31.1389 CH_sp2        1 RES
     492 _CH         36.1583     5.8839    29.7499 CH_sp2        1 RES
     493 _CH         34.1559    24.3270    13.5654 CH_sp2        1 RES
     494 _CH         35.1084    25.3152    13.8414 CH_sp2        1 RES
     495 _CH         36.3260    24.9666    14.4381 CH_sp2        1 RES
     496 _CH         36.5910    23.6298    14.7588 CH_sp2        1 RES
     497 _CH         35.6384    22.6417    14.4828 CH_sp2        1 RES
     498 _CH         34.4209    22.9903    13.8861 CH_sp2        1 RES
     499 _CH          4.6151     7.4009    22.1470 CH_sp2        1 RES
     500 _CH          5.7529     6.6452    21.8399 CH_sp2        1 RES
     501 _CH          6.7858     6.5228    22.7769 CH_sp2        1 RES
     502 _CH          6.6810     7.1562    24.0210 CH_sp2        1 RES
     503 _CH          5.5432     7.9119    24.3282 CH_sp2        1 RES
     504 _CH          4.5103     8.0343    23.3911 CH_sp2        1 RES
     505 _CH         10.9367    10.7907     6.4942 CH_sp2        1 RES
     506 _CH         12.1346    11.2097     5.9031 CH_sp2        1 RES
     507 _CH         13.0876    11.8973     6.6641 CH_sp2        1 RES
     508 _CH         12.8426    12.1658     8.0161 CH_sp2        1 RES
     509 _CH         11.6447    11.7467     8.6071 CH_sp2        1 RES
     510 _CH         10.6917    11.0592     7.8462 CH_sp2        1 RES
     511 _CH          4.6242     4.8199     9.9929 CH_sp2        1 RES
     512 _CH          5.2603     3.5797    10.1249 CH_sp2        1 RES
     513 _CH          6.6009     3.4370     9.7477 CH_sp2        1 RES
     514 _CH          7.3056     4.5344     9.2386 CH_sp2        1 RES
     515 _CH          6.6695     5.7746     9.1067 CH_sp2        1 RES
     516 _CH          5.3289     5.9173     9.4838 CH_sp2        1 RES
     517 _CH         13.2525    19.2420    24.0842 CH_sp2        1 RES
     518 _CH         12.7558    18.1336    23.3880 CH_sp2        1 RES
     519 _CH         11.9556    18.3201    22.2544 CH_sp2        1 RES
     520 _CH         11.6521    19.6149    21.8171 CH_sp2        1 RES
     521 _CH         12.1488    20.7233    22.5133 CH_sp2        1 RES
     522 _CH         12.9490    20.5369    23.6469 CH_sp2        1 RES
     523 _CH         26.5198     5.6968    23.8472 CH_sp2        1 RES
     524 _CH         25.1903     5.7522    24.2824 CH_sp2        1 RES
     525 _CH         24.1770     6.1246    23.3911 CH_sp2        1 RES
     526 _CH         24.4932     6.4416    22.0646 CH_sp2        1 RES
     527 _CH         25.8227     6.3862    21.6294 CH_sp2        1 RES
     528 _CH         26.8360     6.0138    22.5208 CH_sp2        1 RES
     529 _CH         27.0181     8.9403     5.5957 CH_sp2        1 RES
     530 _CH         27.0349     8.9130     6.9953 CH_sp2        1 RES
     531 _CH         26.8651    10.0983     7.7206 CH_sp2        1 RES
     532 _CH         26.6785    11.3110     7.0463 CH_sp2        1 RES
     533 _CH         26.6617    11.3382     5.6467 CH_sp2        1 RES
     534 _CH         26.8315    10.1529     4.9213 CH_sp2        1 RES
     535 _CH          4.9419    38.1568     7.4759 CH_sp2        1 RES
     536 _CH          5.3199    38.5055     6.1738 CH_sp2        1 RES
     537 _CH          4.5295    38.1135     5.0868 CH_sp2        1 RES
     538 _CH          3.3612    37.3727     5.3019 CH_sp2        1 RES
     539 _CH          2.9832    37.0240     6.6040 CH_sp2        1 RES
     540 _CH          3.7735    37.4160     7.6910 CH_sp2        1 RES
     541 _CH          9.8864    29.1769    26.9224 CH_sp2        1 RES
     542 _CH          9.7260    29.2500    28.3113 CH_sp2        1 RES
     543 _CH         10.7007    29.8774    29.0964 CH_sp2        1 RES
     544 _CH         11.8358    30.4316    28.4927 CH_sp2        1 RES
     545 _CH         11.9962    30.3584    27.1038 CH_sp2        1 RES
     546 _CH         11.0215    29.7311    26.3187 CH_sp2        1 RES
     547 _CH          4.8626    15.2697     6.2029 CH_sp2        1 RES
     548 _CH          3.6676    14.5981     6.4873 CH_sp2        1 RES
     549 _CH          3.6849    13.2266     6.7678 CH_sp2        1 RES
     550 _CH          4.8974    12.5266     6.7638 CH_sp2        1 RES
     551 _CH          6.0924    13.1982     6.4794 CH_sp2        1 RES
     552 _CH          6.0751    14.5697     6.1989 CH_sp2        1 RES
     553 _CH         18.5735    12.2043    17.1211 CH_sp2        1 RES
     554 _CH         17.2066    12.2257    16.8191 CH_sp2        1 RES
     555 _CH         16.4805    11.0295    16.7760 CH_sp2        1 RES
     556 _CH         17.1212     9.8120    17.0348 CH_sp2        1 RES
     557 _CH         18.4881     9.7906    17.3367 CH_sp2        1 RES
     558 _CH         19.2142    10.9868    17.3799 CH_sp2        1 RES
     559 _CH         13.8974    38.8912    20.1212 CH_sp2        1 RES
     560 _CH         14.4291    39.1241    21.3952 CH_sp2        1 RES
     561 _CH         14.6503    38.0521    22.2681 CH_sp2        1 RES
     562 _CH         14.3397    36.7472    21.8670 CH_sp2        1 RES
     563 _CH         13.8080    36.5143    20.5931 CH_sp2        1 RES
     564 _CH         13.5869    37.5863    19.7202 CH_sp2        1 RES
     565 _CH         22.1250    23.2563    36.1251 CH_sp2        1 RES
     566 _CH         22.5715    22.5946    37.2752 CH_sp2        1 RES
     567 _CH         21.8583    21.4976    37.7731 CH_sp2        1 RES
     568 _CH         20.6986    21.0623    37.1208 CH_sp2        1 RES
     569 _CH         20.2520    21.7239    35.9707 CH_sp2        1 RES
     570 _CH         20.9652    22.8209    35.4728 CH_sp2        1 RES
     571 _CH         32.4880    20.9126    24.6669 CH_sp2        1 RES
     572 _CH         32.5113    22.2767    24.3527 CH_sp2        1 RES
     573 _CH         32.3657    23.2311    25.3666 CH_sp2        1 RES
     574 _CH         32.1969    22.8214    26.6946 CH_sp2        1 RES
     575 _CH         32.1736    21.4573    27.0087 CH_sp2        1 RES
     576 _CH         32.3191    20.5029    25.9949 CH_sp2        1 RES
     577 _CH         10.3725    37.1885    27.0494 CH_sp2        1 RES
     578 _CH         10.9994    37.6204    25.8745 CH_sp2        1 RES
     579 _CH         12.2912    37.1769    25.5667 CH_sp2        1 RES
     580 _CH         12.9559    36.3016    26.4339 CH_sp2        1 RES
     581 _CH         12.3290    35.8698    27.6088 CH_sp2        1 RES
     582 _CH         11.0372    36.3132    27.9166 CH_sp2        1 RES
     583 _CH         40.0802    33.0028    11.8990 CH_sp2        1 RES
     584 _CH         39.2086    34.0975    11.9444 CH_sp2        1 RES
     585 _CH         37.8461    33.8975    12.1961 CH_sp2        1 RES
     586 _CH         37.3550    32.6028    12.4025 CH_sp2        1 RES
     587 _CH         38.2265    31.5081    12.3571 CH_sp2        1 RES
     588 _CH         39.5891    31.7081    12.1054 CH_sp2        1 RES
     589 _CH         19.7944    18.5120    13.2797 CH_sp2        1 RES
     590 _CH         19.3601    18.1863    11.9892 CH_sp2        1 RES
     591 _CH         19.7157    16.9575    11.4203 CH_sp2        1 RES
     592 _CH         20.5055    16.0544    12.1419 CH_sp2        1 RES
     593 _CH         20.9398    16.3802    13.4324 CH_sp2        1 RES
     594 _CH         20.5842    17.6090    14.0012 CH_sp2        1 RES
     595 _CH          6.3228    30.4292     2.2694 CH_sp2        1 RES
     596 _CH          6.2492    29.1017     2.7078 CH_sp2        1 RES
     597 _CH          5.0402    28.5917     3.1959 CH_sp2        1 RES
     598 _CH          3.9048    29.4092     3.2455 CH_sp2        1 RES
     599 _CH          3.9784    30.7367     2.8071 CH_sp2        1 RES
     600 _CH          5.1873    31.2468     2.3190 CH_sp2        1 RES
     601 _CH          5.3999    18.2438    39.1108 CH_sp2        1 RES
     602 _CH          4.9799    17.2845    40.0399 CH_sp2        1 RES
     603 _CH          5.5609    16.0107    40.0422 CH_sp2        1 RES
     604 _CH          6.5621    15.6964    39.1154 CH_sp2        1 RES
     605 _CH          6.9821    16.6557    38.1863 CH_sp2        1 RES
     606 _CH          6.4011    17.9294    38.1840 CH_sp2        1 RES
     607 _CH         18.2297    30.5163    23.3743 CH_sp2        1 RES
     608 _CH         19.5660    30.2573    23.0467 CH_sp2        1 RES
     609 _CH         20.0229    28.9366    22.9629 CH_sp2        1 RES
     610 _CH         19.1435    27.8749    23.2066 CH_sp2        1 RES
     611 _CH         17.8072    28.1338    23.5342 CH_sp2        1 RES
     612 _CH         17.3503    29.4545    23.6180 CH_sp2        1 RES
     613 _CH         37.9031    36.0233    30.4814 CH_sp2        1 RES
     614 _CH         39.0457    36.6351    31.0107 CH_sp2        1 RES
     615 _CH         40.1696    35.8631    31.3283 CH_sp2        1 RES
     616 _CH         40.1509    34.4793    31.1166 CH_sp2        1 RES
     617 _CH         39.0083    33.8675    30.5873 CH_sp2        1 RES
     618 _CH         37.8844    34.6395    30.2697 CH_sp2        1 RES
     619 _CH         24.2551    31.0619    22.0028 CH_sp2        1 RES
     620 _CH         24.9277    29.9835    21.4156 CH_sp2        1 RES
     621 _CH         24.2777    28.7531    21.2620 CH_sp2        1 RES
     622 _CH         22.9552    28.6010    21.6955 CH_sp2        1 RES
     623 _CH         22.2827    29.6794    22.2826 CH_sp2        1 RES
     624 _CH         22.9326    30.9099    22.4363 CH_sp2        1 RES
     625 _CH         32.3407    28.3768    15.2712 CH_sp2        1 RES
     626 _CH         31.4735    27.2781    15.3015 CH_sp2        1 RES
     627 _CH         31.9908    25.9803    15.3913 CH_sp2        1 RES
     628 _CH         33.3753    25.7811    15.4508 CH_sp2        1 RES
     629 _CH         34.2425    26.8798    15.4205 CH_sp2        1 RES
     630 _CH         33.7252    28.1776    15.3307 CH_sp2        1 RES
     631 _CH         16.6193    25.2365    29.7074 CH_sp2        1 RES
     632 _CH         15.4121    25.4176    30.3929 CH_sp2        1 RES
     633 _CH         14.8394    26.6923    30.4773 CH_sp2        1 RES
     634 _CH         15.4739    27.7859    29.8762 CH_sp2        1 RES
     635 _CH         16.6811    27.6049    29.1907 CH_sp2        1 RES
     636 _CH         17.2538    26.3302    29.1063 CH_sp2        1 RES
     637 _CH         21.8654    33.0510    38.8674 CH_sp2        1 RES
     638 _CH         22.2778    31.7138    38.8250 CH_sp2        1 RES
     639 _CH         21.3341    30.6862    38.9405 CH_sp2        1 RES
     640 _CH         19.9779    30.9958    39.0984 CH_sp2        1 RES
     641 _CH         19.5655    32.3330    39.1408 CH_sp2        1 RES
     642 _CH         20.5092    33.3606    39.0253 CH_sp2        1 RES
     643 _CH         26.1234     9.5220    30.4181 CH_sp2        1 RES
     644 _CH         24.9057     9.0030    30.8740 CH_sp2        1 RES
     645 _CH         23.6992     9.4995    30.3663 CH_sp2        1 RES
     646 _CH         23.7104    10.5151    29.4027 CH_sp2        1 RES
     647 _CH         24.9281    11.0341    28.9468 CH_sp2        1 RES
     648 _CH         26.1346    10.5376    29.4545 CH_sp2        1 RES
     649 _CH         15.6705    21.7838    30.5264 CH_sp2        1 RES
     650 _CH         14.2768    21.8527    30.6401 CH_sp2        1 RES
     651 _CH         13.5327    20.6849    30.8464 CH_sp2        1 RES
     652 _CH         14.1823    19.4482    30.9390 CH_sp2        1 RES
     653 _CH         15.5760    19.3793    30.8252 CH_sp2        1 RES
     654 _CH         16.3201    20.5471    30.6189 CH_sp2        1 RES
     655 _CH         11.7504    11.2433    21.9615 CH_sp2        1 RES
     656 _CH         10.6257    10.7113    21.3197 CH_sp2        1 RES
     657 _CH         10.2166     9.4011    21.5957 CH_sp2        1 RES
     658 _CH         10.9323     8.6230    22.5135 CH_sp2        1 RES
     659 _CH         12.0571     9.1551    23.1553 CH_sp2        1 RES
     660 _CH         12.4661    10.4652    22.8793 CH_sp2        1 RES
     661 _CH         22.6725    14.8903    15.5791 CH_sp2        1 RES
     662 _CH         21.3508    15.0742    15.1557 CH_sp2        1 RES
     663 _CH         20.4008    14.0683    15.3695 CH_sp2        1 RES
     664 _CH         20.7726    12.8784    16.0067 CH_sp2        1 RES
     665 _CH         22.0943    12.6945    16.4301 CH_sp2        1 RES
     666 _CH         23.0442    13.7004    16.2163 CH_sp2        1 RES
     667 _CH         31.0930     9.3207    26.7405 CH_sp2        1 RES
     668 _CH         31.3729     8.5181    25.6280 CH_sp2        1 RES
     669 _CH         32.6972     8.1809    25.3236 CH_sp2        1 RES
     670 _CH         33.7415     8.6462    26.1316 CH_sp2        1 RES
     671 _CH         33.4616     9.4488    27.2440 CH_sp2        1 RES
     672 _CH         32.1373     9.7860    27.5485 CH_sp2        1 RES
     673 _CH         28.9158    34.5564    17.8834 CH_sp2        1 RES
     674 _CH         28.4361    35.3961    18.8957 CH_sp2        1 RES
     675 _CH         27.9601    34.8481    20.0928 CH_sp2        1 RES
     676 _CH         27.9637    33.4604    20.2777 CH_sp2        1 RES
     677 _CH         28.4435    32.6206    19.2654 CH_sp2        1 RES
     678 _CH         28.9195    33.1686    18.0683 CH_sp2        1 RES
     679 _CH         30.8255    37.4689    33.5165 CH_sp2        1 RES
     680 _CH         30.5155    37.7133    34.8597 CH_sp2        1 RES
     681 _CH         29.1858    37.6522    35.2936 CH_sp2        1 RES
     682 _CH         28.1661    37.3467    34.3842 CH_sp2        1 RES
     683 _CH         28.4761    37.1023    33.0410 CH_sp2        1 RES
     684 _CH         29.8058    37.1634    32.6072 CH_sp2        1 RES
     685 _CH         31.5044    34.4780    40.1014 CH_sp2        1 RES
     686 _CH         32.2278    35.6765    40.0883 CH_sp2        1 RES
     687 _CH         33.6273    35.6498    40.1163 CH_sp2        1 RES
     688 _CH         34.3033    34.4245    40.1576 CH_sp2        1 RES
     689 _CH         33.5798    33.2260    40.1707 CH_sp2        1 RES
     690 _CH         32.1804    33.2527    40.1426 CH_sp2        1 RES
     691 _CH         27.8690    31.7112    38.6996 CH_sp2        1 RES
     692 _CH         28.7175    30.9065    39.4694 CH_sp2        1 RES
     693 _CH         29.7873    31.4823    40.1651 CH_sp2        1 RES
     694 _CH         30.0086    32.8627    40.0911 CH_sp2        1 RES
     695 _CH         29.1601    33.6674    39.3214 CH_sp2        1 RES
     696 _CH         28.0903    33.0917    38.6257 CH_sp2        1 RES
     697 _CH         37.2088    20.3701    36.3478 CH_sp2        1 RES
     698 _CH         37.0180    21.3102    35.3281 CH_sp2        1 RES
     699 _CH         36.0659    21.0756    34.3289 CH_sp2        1 RES
     700 _CH         35.3044    19.9009    34.3495 CH_sp2        1 RES
     701 _CH         35.4952    18.9609    35.3693 CH_sp2        1 RES
     702 _CH         36.4474    19.1955    36.3684 CH_sp2        1 RES
     703 _CH          4.8625    17.9718    29.9942 CH_sp2        1 RES
     704 _CH          5.2430    19.3128    30.1239 CH_sp2        1 RES
     705 _CH          4.2722    20.3213    30.1011 CH_sp2        1 RES
     706 _CH          2.9209    19.9888    29.9486 CH_sp2        1 RES
     707 _CH          2.5403    18.6477    29.8189 CH_sp2        1 RES
     708 _CH          3.5111    17.6392    29.8417 CH_sp2        1 RES
     709 _CH          7.1982     8.4405    19.8492 CH_sp2        1 RES
     710 _CH          8.2826     8.9439    20.5776 CH_sp2        1 RES
     711 _CH          8.0992    10.0232    21.4502 CH_sp2        1 RES
     712 _CH          6.8314    10.5991    21.5945 CH_sp2        1 RES
     713 _CH          5.7469    10.0957    20.8661 CH_sp2        1 RES
     714 _CH          5.9303     9.0164    19.9935 CH_sp2        1 RES
     715 _CH         10.2567    17.8695    36.4706 CH_sp2        1 RES
     716 _CH          9.2248    17.0142    36.0659 CH_sp2        1 RES
     717 _CH          9.1757    15.7003    36.5467 CH_sp2        1 RES
     718 _CH         10.1583    15.2417    37.4322 CH_sp2        1 RES
     719 _CH         11.1901    16.0970    37.8369 CH_sp2        1 RES
     720 _CH         11.2393    17.4109    37.3561 CH_sp2        1 RES
     721 _CH          6.0645    10.6800    15.7835 CH_sp2        1 RES
     722 _CH          6.7276    10.7399    14.5519 CH_sp2        1 RES
     723 _CH          6.2640    11.5989    13.5484 CH_sp2        1 RES
     724 _CH          5.1373    12.3980    13.7763 CH_sp2        1 RES
     725 _CH          4.4741    12.3381    15.0079 CH_sp2        1 RES
     726 _CH          4.9377    11.4791    16.0114 CH_sp2        1 RES
     727 _CH         22.4998     4.8857    29.6543 CH_sp2        1 RES
     728 _CH         21.1918     4.5949    30.0601 CH_sp2        1 RES
     729 _CH         20.8491     3.2905    30.4358 CH_sp2        1 RES
     730 _CH         21.8143     2.2769    30.4056 CH_sp2        1 RES
     731 _CH         23.1223     2.5676    29.9998 CH_sp2        1 RES
     732 _CH         23.4650     3.8720    29.6241 CH_sp2        1 RES
     733 _CH         14.2143    18.8405    37.6127 CH_sp2        1 RES
     734 _CH         13.8972    19.1807    38.9332 CH_sp2        1 RES
     735 _CH         13.3026    18.2344    39.7764 CH_sp2        1 RES
     736 _CH         13.0252    16.9478    39.2991 CH_sp2        1 RES
     737 _CH         13.3423    16.6076    37.9786 CH_sp2        1 RES
     738 _CH         13.9368    17.5540    37.1354 CH_sp2        1 RES
     739 _CH         36.2829     6.1233     7.9770 CH_sp2        1 RES
     740 _CH         37.6437     6.2880     7.6926 CH_sp2        1 RES
     741 _CH         38.2319     7.5543     7.7948 CH_sp2        1 RES
     742 _CH         37.4593     8.6559     8.1813 CH_sp2        1 RES
     743 _CH         36.0984     8.4912     8.4657 CH_sp2        1 RES
     744 _CH         35.5102     7.2249     8.3636 CH_sp2        1 RES
     745 _CH         36.0108    17.2294    23.8017 CH_sp2        1 RES
     746 _CH         35.9229    18.1650    24.8395 CH_sp2        1 RES
     747 _CH         37.0509    18.9063    25.2111 CH_sp2        1 RES
     748 _CH         38.2669    18.7119    24.5450 CH_sp2        1 RES
     749 _CH         38.3548    17.7764    23.5072 CH_sp2        1 RES
     750 _CH         37.2268    17.0351    23.1356 CH_sp2        1 RES
     751 _CH         21.0126    22.5192     3.6675 CH_sp2        1 RES
     752 _CH         22.1958    21.7997     3.4616 CH_sp2        1 RES
     753 _CH         22.1454    20.4182     3.2401 CH_sp2        1 RES
     754 _CH         20.9119    19.7563     3.2244 CH_sp2        1 RES
     755 _CH         19.7287    20.4758     3.4303 CH_sp2        1 RES
     756 _CH         19.7791    21.8573     3.6518 CH_sp2        1 RES
     757 _CH         29.0241     5.0864     3.5193 CH_sp2        1 RES
     758 _CH         27.7926     5.6068     3.1041 CH_sp2        1 RES
     759 _CH         26.8041     5.9049     4.0496 CH_sp2        1 RES
     760 _CH         27.0471     5.6826     5.4103 CH_sp2        1 RES
     761 _CH         28.2787     5.1621     5.8255 CH_sp2        1 RES
     762 _CH         29.2672     4.8640     4.8800 CH_sp2        1 RES
     763 _CH         19.5522    29.4367    12.5454 CH_sp2        1 RES
     764 _CH         19.7080    28.0927    12.1860 CH_sp2        1 RES
     765 _CH         20.9856    27.5795    11.9323 CH_sp2        1 RES
     766 _CH         22.1074    28.4103    12.0381 CH_sp2        1 RES
     767 _CH         21.9517    29.7544    12.3975 CH_sp2        1 RES
     768 _CH         20.6741    30.2676    12.6512 CH_sp2        1 RES
     769 _CH          7.6300    18.7698    23.7384 CH_sp2        1 RES
     770 _CH          7.1745    20.0763    23.9518 CH_sp2        1 RES
     771 _CH          7.9988    21.1645    23.6412 CH_sp2        1 RES
     772 _CH          9.2785    20.9462    23.1173 CH_sp2        1 RES
     773 _CH          9.7340    19.6396    22.9039 CH_sp2        1 RES
     774 _CH          8.9098    18.5515    23.2145 CH_sp2        1 RES
     775 _CH         17.7442    19.2082    38.8896 CH_sp2        1 RES
     776 _CH         17.2665    20.3660    39.5153 CH_sp2        1 RES
     777 _CH         16.8356    21.4517    38.7436 CH_sp2        1 RES
     778 _CH         16.8825    21.3797    37.3462 CH_sp2        1 RES
     779 _CH         17.3602    20.2220    36.7206 CH_sp2        1 RES
     780 _CH         17.7910    19.1362    37.4923 CH_sp2        1 RES
     781 _CH         22.7690    27.1205    13.8418 CH_sp2        1 RES
     782 _CH         23.0471    26.0853    14.7424 CH_sp2        1 RES
     783 _CH         24.2991    26.0169    15.3653 CH_sp2        1 RES
     784 _CH         25.2728    26.9836    15.0876 CH_sp2        1 RES
     785 _CH         24.9947    28.0188    14.1871 CH_sp2        1 RES
     786 _CH         23.7427    28.0873    13.5642 CH_sp2        1 RES
     787 _CH         15.8495    26.8398    23.7456 CH_sp2        1 RES
     788 _CH         14.5848    26.3074    24.0231 CH_sp2        1 RES
     789 _CH         14.1861    25.1040    23.4290 CH_sp2        1 RES
     790 _CH         15.0522    24.4331    22.5574 CH_sp2        1 RES
     791 _CH         16.3169    24.9655    22.2799 CH_sp2        1 RES
     792 _CH         16.7156    26.1689    22.8740 CH_sp2        1 RES
     793 _CH         35.4513    31.9458    22.1087 CH_sp2        1 RES
     794 _CH         35.4040    30.8029    22.9158 CH_sp2        1 RES
     795 _CH         34.5595    29.7396    22.5748 CH_sp2        1 RES
     796 _CH         33.7622    29.8194    21.4267 CH_sp2        1 RES
     797 _CH         33.8096    30.9623    20.6196 CH_sp2        1 RES
     798 _CH         34.6541    32.0255    20.9606 CH_sp2        1 RES
     799 _CH         23.9764     8.8309    21.2416 CH_sp2        1 RES
     800 _CH         25.2077     8.9555    21.8961 CH_sp2        1 RES
     801 _CH         25.2471     9.1569    23.2810 CH_sp2        1 RES
     802 _CH         24.0552     9.2338    24.0113 CH_sp2        1 RES
     803 _CH         22.8239     9.1092    23.3568 CH_sp2        1 RES
     804 _CH         22.7845     8.9078    21.9719 CH_sp2        1 RES
     805 _CH         31.3642    10.3835     7.1393 CH_sp2        1 RES
     806 _CH         31.8793    11.4444     7.8938 CH_sp2        1 RES
     807 _CH         32.8180    11.1952     8.9021 CH_sp2        1 RES
     808 _CH         33.2416     9.8852     9.1560 CH_sp2        1 RES
     809 _CH         32.7265     8.8244     8.4016 CH_sp2        1 RES
     810 _CH         31.7878     9.0735     7.3932 CH_sp2        1 RES
     811 _CH         33.8239    16.5091    22.2164 CH_sp2        1 RES
     812 _CH         34.4122    15.2599    21.9855 CH_sp2        1 RES
     813 _CH         33.6076    14.1241    21.8355 CH_sp2        1 RES
     814 _CH         32.2145    14.2376    21.9164 CH_sp2        1 RES
     815 _CH         31.6261    15.4868    22.1473 CH_sp2        1 RES
     816 _CH         32.4308    16.6225    22.2973 CH_sp2        1 RES
     817 _CH         13.5101     6.0016    25.3414 CH_sp2        1 RES
     818 _CH         13.6121     6.1568    23.9538 CH_sp2        1 RES
     819 _CH         14.2969     5.2032    23.1912 CH_sp2        1 RES
     820 _CH         14.8798     4.0943    23.8162 CH_sp2        1 RES
     821 _CH         14.7778     3.9391    25.2038 CH_sp2        1 RES
     822 _CH         14.0930     4.8927    25.9664 CH_sp2        1 RES
     823 _CH         13.9959    26.5647    36.7645 CH_sp2        1 RES
     824 _CH         13.0787    25.8606    35.9753 CH_sp2        1 RES
     825 _CH         11.9581    25.2654    36.5669 CH_sp2        1 RES
     826 _CH         11.7547    25.3744    37.9477 CH_sp2        1 RES
     827 _CH         12.6719    26.0786    38.7370 CH_sp2        1 RES
     828 _CH         13.7925    26.6737    38.1453 CH_sp2        1 RES
     829 _CH         15.6637    36.2627    30.8331 CH_sp2        1 RES
     830 _CH         14.8081    37.3687    30.7647 CH_sp2        1 RES
     831 _CH         14.0625    37.6061    29.6037 CH_sp2        1 RES
     832 _CH         14.1726    36.7376    28.5112 CH_sp2        1 RES
     833 _CH         15.0283    35.6316    28.5797 CH_sp2        1 RES
     834 _CH         15.7738    35.3942    29.7406 CH_sp2        1 RES
     835 _CH          7.5689    36.9059    24.1355 CH_sp2        1 RES
     836 _CH          6.6362    35.8729    24.2869 CH_sp2        1 RES
     837 _CH          5.3643    36.1483    24.8032 CH_sp2        1 RES
     838 _CH          5.0253    37.4567    25.1682 CH_sp2        1 RES
     839 _CH          5.9580    38.4897    25.0168 CH_sp2        1 RES
     840 _CH          7.2298    38.2143    24.5005 CH_sp2        1 RES
     841 _CH         19.7594    11.6105    23.4132 CH_sp2        1 RES
     842 _CH         18.3711    11.6114    23.5937 CH_sp2        1 RES
     843 _CH         17.5245    11.8738    22.5100 CH_sp2        1 RES
     844 _CH         18.0663    12.1354    21.2458 CH_sp2        1 RES
     845 _CH         19.4546    12.1345    21.0654 CH_sp2        1 RES
     846 _CH         20.3012    11.8721    22.1491 CH_sp2        1 RES
     847 _CH         20.0024     5.2297    20.4602 CH_sp2        1 RES
     848 _CH         20.7246     6.0717    21.3143 CH_sp2        1 RES
     849 _CH         20.0964     7.1740    21.9062 CH_sp2        1 RES
     850 _CH         18.7460     7.4342    21.6440 CH_sp2        1 RES
     851 _CH         18.0238     6.5922    20.7899 CH_sp2        1 RES
     852 _CH         18.6520     5.4900    20.1980 CH_sp2        1 RES
     853 _CH         25.0436     5.7572    16.2957 CH_sp2        1 RES
     854 _CH         23.8524     6.1475    16.9192 CH_sp2        1 RES
     855 _CH         23.7679     7.3953    17.5485 CH_sp2        1 RES
     856 _CH         24.8746     8.2527    17.5543 CH_sp2        1 RES
     857 _CH         26.0658     7.8624    16.9308 CH_sp2        1 RES
     858 _CH         26.1503     6.6147    16.3016 CH_sp2        1 RES
     859 _CH         16.1175    11.7353    11.4766 CH_sp2        1 RES
     860 _CH         17.2458    10.9837    11.1275 CH_sp2        1 RES
     861 _CH         18.5172    11.3938    11.5463 CH_sp2        1 RES
     862 _CH         18.6602    12.5556    12.3142 CH_sp2        1 RES
     863 _CH         17.5319    13.3073    12.6634 CH_sp2        1 RES
     864 _CH         16.2606    12.8971    12.2446 CH_sp2        1 RES
     865 _CH         37.3468    21.5211    16.1658 CH_sp2        1 RES
     866 _CH         37.0161    21.0752    17.4510 CH_sp2        1 RES
     867 _CH         37.9849    20.4516    18.2464 CH_sp2        1 RES
     868 _CH         39.2844    20.2740    17.7566 CH_sp2        1 RES
     869 _CH         39.6151    20.7200    16.4714 CH_sp2        1 RES
     870 _CH         38.6463    21.3436    15.6760 CH_sp2        1 RES
     871 _CH         28.1762    27.1978     5.5418 CH_sp2        1 RES
     872 _CH         29.4536    26.6856     5.7983 CH_sp2        1 RES
     873 _CH         29.7159    26.0326     7.0086 CH_sp2        1 RES
     874 _CH         28.7008    25.8917     7.9623 CH_sp2        1 RES
     875 _CH         27.4233    26.4039     7.7058 CH_sp2        1 RES
     876 _CH         27.1610    27.0569     6.4956 CH_sp2        1 RES
     877 _CH         10.0531    16.8939    25.0217 CH_sp2        1 RES
     878 _CH          8.8187    17.2484    25.5791 CH_sp2        1 RES
     879 _CH          8.5092    18.5967    25.7942 CH_sp2        1 RES
     880 _CH          9.4340    19.5905    25.4518 CH_sp2        1 RES
     881 _CH         10.6683    19.2359    24.8945 CH_sp2        1 RES
     882 _CH         10.9779    17.8876    24.6794 CH_sp2        1 RES
     883 _CH         28.6671     9.4130    20.8181 CH_sp2        1 RES
     884 _CH         28.5426     8.4695    21.8449 CH_sp2        1 RES
     885 _CH         29.4474     8.4740    22.9132 CH_sp2        1 RES
     886 _CH         30.4767     9.4221    22.9547 CH_sp2        1 RES
     887 _CH         30.6012    10.3656    21.9279 CH_sp2        1 RES
     888 _CH         29.6964    10.3610    20.8596 CH_sp2        1 RES
     889 _CH         15.6176    13.5455    19.1131 CH_sp2        1 RES
     890 _CH         16.2533    12.9984    20.2341 CH_sp2        1 RES
     891 _CH         16.0080    11.6691    20.5987 CH_sp2        1 RES
     892 _CH         15.1271    10.8870    19.8422 CH_sp2        1 RES
     893 _CH         14.4914    11.4340    18.7212 CH_sp2        1 RES
     894 _CH         14.7367    12.7633    18.3567 CH_sp2        1 RES
     895 _CH          5.2127    13.3599    27.9420 CH_sp2        1 RES
     896 _CH          6.5882    13.5694    27.7867 CH_sp2        1 RES
     897 _CH          7.4579    12.4754    27.7038 CH_sp2        1 RES
     898 _CH          6.9520    11.1720    27.7763 CH_sp2        1 RES
     899 _CH          5.5765    10.9626    27.9315 CH_sp2        1 RES
     900 _CH          4.7068    12.0565    28.0144 CH_sp2        1 RES
     901 _CH         11.5443    28.2685     9.8353 CH_sp2        1 RES
     902 _CH         12.6018    27.3512     9.8150 CH_sp2        1 RES
     903 _CH         12.3423    25.9810     9.9381 CH_sp2        1 RES
     904 _CH         11.0254    25.5280    10.0815 CH_sp2        1 RES
     905 _CH          9.9680    26.4453    10.1018 CH_sp2        1 RES
     906 _CH         10.2274    27.8155     9.9788 CH_sp2        1 RES
     907 _CH         22.4663    27.1061     3.0729 CH_sp2        1 RES
     908 _CH         23.1615    28.1444     3.7043 CH_sp2        1 RES
     909 _CH         24.5493    28.0596     3.8677 CH_sp2        1 RES
     910 _CH         25.2420    26.9365     3.3998 CH_sp2        1 RES
     911 _CH         24.5467    25.8983     2.7684 CH_sp2        1 RES
     912 _CH         23.1589    25.9831     2.6049 CH_sp2        1 RES
     913 _CH         26.0723    30.0145    36.8857 CH_sp2        1 RES
     914 _CH         27.0246    29.3146    36.1353 CH_sp2        1 RES
     915 _CH         27.9792    30.0146    35.3878 CH_sp2        1 RES
     916 _CH         27.9814    31.4146    35.3908 CH_sp2        1 RES
     917 _CH         27.0291    32.1146    36.1412 CH_sp2        1 RES
     918 _CH         26.0745    31.4145    36.8887 CH_sp2        1 RES
     919 _CH         36.8164     6.9187     5.1848 CH_sp2        1 RES
     920 _CH         38.1293     6.7628     4.7242 CH_sp2        1 RES
     921 _CH         38.4099     6.8781     3.3575 CH_sp2        1 RES
     922 _CH         37.3777     7.1495     2.4514 CH_sp2        1 RES
     923 _CH         36.0649     7.3054     2.9120 CH_sp2        1 RES
     924 _CH         35.7843     7.1901     4.2788 CH_sp2        1 RES
     925 _CH         14.4949    10.2223    13.7179 CH_sp2        1 RES
     926 _CH         14.2288    11.5965    13.7470 CH_sp2        1 RES
     927 _CH         13.7045    12.2322    12.6152 CH_sp2        1 RES
     928 _CH         13.4462    11.4937    11.4542 CH_sp2        1 RES
     929 _CH         13.7123    10.1195    11.4251 CH_sp2        1 RES
     930 _CH         14.2366     9.4838    12.5569 CH_sp2        1 RES
     931 _CH          5.5548     4.0735    19.3928 CH_sp2        1 RES
     932 _CH          5.3882     3.0146    20.2934 CH_sp2        1 RES
     933 _CH          6.5086     2.3610    20.8203 CH_sp2        1 RES
     934 _CH          7.7955     2.7662    20.4466 CH_sp2        1 RES
     935 _CH          7.9621     3.8251    19.5460 CH_sp2        1 RES
     936 _CH          6.8417     4.4787    19.0191 CH_sp2        1 RES
     937 _CH         26.1861    38.7040    10.9500 CH_sp2        1 RES
     938 _CH         26.8816    37.5853    11.4240 CH_sp2        1 RES
     939 _CH         28.1683    37.7344    11.9553 CH_sp2        1 RES
     940 _CH         28.7595    39.0021    12.0124 CH_sp2        1 RES
     941 _CH         28.0640    40.1208    11.5383 CH_sp2        1 RES
     942 _CH         26.7773    39.9718    11.0071 CH_sp2        1 RES
     943 _CH         10.7136    19.3311    38.6812 CH_sp2        1 RES
     944 _CH          9.9459    19.7122    37.5743 CH_sp2        1 RES
     945 _CH          8.5859    20.0044    37.7327 CH_sp2        1 RES
     946 _CH          7.9936    19.9153    38.9981 CH_sp2        1 RES
     947 _CH          8.7613    19.5341    40.1051 CH_sp2        1 RES
     948 _CH         10.1213    19.2420    39.9466 CH_sp2        1 RES
     949 _CH         20.3854    23.3174    27.7081 CH_sp2        1 RES
     950 _CH         19.9263    24.5993    27.3824 CH_sp2        1 RES
     951 _CH         18.5989    24.9560    27.6485 CH_sp2        1 RES
     952 _CH         17.7306    24.0308    28.2402 CH_sp2        1 RES
     953 _CH         18.1897    22.7489    28.5658 CH_sp2        1 RES
     954 _CH         19.5170    22.3922    28.2997 CH_sp2        1 RES
     955 _CH         34.9136    12.6490     8.0787 CH_sp2        1 RES
     956 _CH         34.9172    11.2582     7.9183 CH_sp2        1 RES
     957 _CH         36.0926    10.6007     7.5364 CH_sp2        1 RES
     958 _CH         37.2645    11.3339     7.3148 CH_sp2        1 RES
     959 _CH         37.2609    12.7247     7.4751 CH_sp2        1 RES
     960 _CH         36.0854    13.3823     7.8570 CH_sp2        1 RES
     961 _CH         24.5431    16.6370    29.8466 CH_sp2        1 RES
     962 _CH         25.8553    17.0982    29.6873 CH_sp2        1 RES
     963 _CH         26.8926    16.5306    30.4370 CH_sp2        1 RES
     964 _CH         26.6176    15.5020    31.3460 CH_sp2        1 RES
     965 _CH         25.3053    15.0409    31.5053 CH_sp2        1 RES
     966 _CH         24.2681    15.6084    30.7556 CH_sp2        1 RES
     967 _CH          4.3231    37.0196    29.6026 CH_sp2        1 RES
     968 _CH          3.4868    38.0710    29.9965 CH_sp2        1 RES
     969 _CH          3.4875    38.5050    31.3275 CH_sp2        1 RES
     970 _CH          4.3245    37.8876    32.2647 CH_sp2        1 RES
     971 _CH          5.1607    36.8361    31.8708 CH_sp2        1 RES
     972 _CH          5.1600    36.4021    30.5398 CH_sp2        1 RES
     973 _CH         24.6250     5.3849    35.9142 CH_sp2        1 RES
     974 _CH         25.0313     4.0552    35.7500 CH_sp2        1 RES
     975 _CH         24.0952     3.0756    35.3980 CH_sp2        1 RES
     976 _CH         22.7527     3.4256    35.2101 CH_sp2        1 RES
     977 _CH         22.3464     4.7552    35.3742 CH_sp2        1 RES
     978 _CH         23.2826     5.7349    35.7263 CH_sp2        1 RES
     979 _CH         14.4263    17.2797    19.9328 CH_sp2        1 RES
     980 _CH         13.7865    18.3603    20.5517 CH_sp2        1 RES
     981 _CH         14.5448    19.3909    21.1197 CH_sp2        1 RES
     982 _CH         15.9430    19.3411    21.0687 CH_sp2        1 RES
     983 _CH         16.5828    18.2605    20.4498 CH_sp2        1 RES
     984 _CH         15.8244    17.2298    19.8819 CH_sp2        1 RES
     985 _CH          4.6456    33.8757    28.2697 CH_sp2        1 RES
     986 _CH          3.5613    33.0121    28.4653 CH_sp2        1 RES
     987 _CH          2.2995    33.3471    27.9598 CH_sp2        1 RES
     988 _CH          2.1220    34.5459    27.2587 CH_sp2        1 RES
     989 _CH          3.2063    35.4096    27.0631 CH_sp2        1 RES
     990 _CH          4.4682    35.0745    27.5686 CH_sp2        1 RES
     991 _CH         37.4358    27.0797    27.1696 CH_sp2        1 RES
     992 _CH         37.9592    25.7995    26.9525 CH_sp2        1 RES
     993 _CH         39.2754    25.6489    26.4996 CH_sp2        1 RES
     994 _CH         40.0680    26.7786    26.2638 CH_sp2        1 RES
     995 _CH         39.5446    28.0588    26.4808 CH_sp2        1 RES
     996 _CH         38.2284    28.2093    26.9337 CH_sp2        1 RES
     997 _CH         29.6078    23.2733    17.4896 CH_sp2        1 RES
     998 _CH         30.0351    24.5524    17.8654 CH_sp2        1 RES
     999 _CH         30.0036    25.6013    16.9386 CH_sp2        1 RES
    1000 _CH         29.5449    25.3711    15.6361 CH_sp2        1 RES
    1001 _CH         29.1176    24.0919    15.2604 CH_sp2        1 RES
    1002 _CH         29.1491    23.0430    16.1871 CH_sp2        1 RES
    1003 _CH          3.2065    20.2437    20.7473 CH_sp2        1 RES
    1004 _CH          3.1838    19.0571    20.0048 CH_sp2        1 RES
    1005 _CH          3.7420    19.0237    18.7213 CH_sp2        1 RES
    1006 _CH          4.3228    20.1769    18.1803 CH_sp2        1 RES
    1007 _CH          4.3454    21.3636    18.9228 CH_sp2        1 RES
    1008 _CH          3.7873    21.3970    20.2063 CH_sp2        1 RES
    1009 _CH          7.3476    31.6630    11.9836 CH_sp2        1 RES
    1010 _CH          7.2367    31.5612    10.5917 CH_sp2        1 RES
    1011 _CH          6.9719    30.3205     9.9995 CH_sp2        1 RES
    1012 _CH          6.8180    29.1817    10.7992 CH_sp2        1 RES
    1013 _CH          6.9289    29.2836    12.1911 CH_sp2        1 RES
    1014 _CH          7.1937    30.5242    12.7833 CH_sp2        1 RES
    1015 _CH         30.1573    33.7618     8.7374 CH_sp2        1 RES
    1016 _CH         30.1672    34.9665     8.0241 CH_sp2        1 RES
    1017 _CH         31.0386    35.1314     6.9408 CH_sp2        1 RES
    1018 _CH         31.9000    34.0916     6.5708 CH_sp2        1 RES
    1019 _CH         31.8900    32.8870     7.2841 CH_sp2        1 RES
    1020 _CH         31.0187    32.7221     8.3674 CH_sp2        1 RES
    1021 _CH         30.4836    11.4744     2.6937 CH_sp2        1 RES
    1022 _CH         30.3587    12.0457     3.9657 CH_sp2        1 RES
    1023 _CH         30.3729    11.2304     5.1037 CH_sp2        1 RES
    1024 _CH         30.5121     9.8438     4.9697 CH_sp2        1 RES
    1025 _CH         30.6370     9.2725     3.6977 CH_sp2        1 RES
    1026 _CH         30.6228    10.0878     2.5597 CH_sp2        1 RES
    1027 _CH         12.0812     7.0430    30.8153 CH_sp2        1 RES
    1028 _CH         11.5441     8.1609    30.1658 CH_sp2        1 RES
    1029 _CH         11.3294     9.3476    30.8770 CH_sp2        1 RES
    1030 _CH         11.6518     9.4163    32.2376 CH_sp2        1 RES
    1031 _CH         12.1889     8.2984    32.8871 CH_sp2        1 RES
    1032 _CH         12.4036     7.1117    32.1759 CH_sp2        1 RES
    1033 _CH         14.8989    34.0715    13.6447 CH_sp2        1 RES
    1034 _CH         15.8413    33.0374    13.5943 CH_sp2        1 RES
    1035 _CH         16.9093    33.0188    14.4994 CH_sp2        1 RES
    1036 _CH         17.0348    34.0343    15.4549 CH_sp2        1 RES
    1037 _CH         16.0924    35.0684    15.5053 CH_sp2        1 RES
    1038 _CH         15.0244    35.0870    14.6003 CH_sp2        1 RES
    1039 _CH         20.4368    35.6607    12.6446 CH_sp2        1 RES
    1040 _CH         21.2893    34.6994    13.2007 CH_sp2        1 RES
    1041 _CH         21.1320    33.3484    12.8689 CH_sp2        1 RES
    1042 _CH         20.1221    32.9587    11.9810 CH_sp2        1 RES
    1043 _CH         19.2696    33.9200    11.4250 CH_sp2        1 RES
    1044 _CH         19.4269    35.2709    11.7568 CH_sp2        1 RES
    1045 _CH         16.0070    21.3797     8.2715 CH_sp2        1 RES
    1046 _CH         15.7036    21.2870     9.6351 CH_sp2        1 RES
    1047 _CH         15.9532    22.3725    10.4831 CH_sp2        1 RES
    1048 _CH         16.5064    23.5508     9.9676 CH_sp2        1 RES
    1049 _CH         16.8098    23.6435     8.6041 CH_sp2        1 RES
    1050 _CH         16.5602    22.5579     7.7560 CH_sp2        1 RES
    1051 _CH         26.7270    13.0713    20.1214 CH_sp2        1 RES
    1052 _CH         26.3036    13.7195    21.2878 CH_sp2        1 RES
    1053 _CH         26.2120    13.0080    22.4901 CH_sp2        1 RES
    1054 _CH         26.5438    11.6484    22.5259 CH_sp2        1 RES
    1055 _CH         26.9673    11.0002    21.3594 CH_sp2        1 RES
    1056 _CH         27.0589    11.7117    20.1572 CH_sp2        1 RES
    1057 _CH          7.9696     9.3062     3.3313 CH_sp2        1 RES
    1058 _CH          7.3645     8.7180     4.4483 CH_sp2        1 RES
    1059 _CH          7.7630     9.0905     5.7377 CH_sp2        1 RES
    1060 _CH          8.7667    10.0512     5.9099 CH_sp2        1 RES
    1061 _CH          9.3718    10.6394     4.7929 CH_sp2        1 RES
    1062 _CH          8.9733    10.2669     3.5035 CH_sp2        1 RES
    1063 _CH         11.8421    24.7762    18.8320 CH_sp2        1 RES
    1064 _CH         12.5298    23.5599    18.7445 CH_sp2        1 RES
    1065 _CH         13.9048    23.5506    18.4815 CH_sp2        1 RES
    1066 _CH         14.5922    24.7576    18.3061 CH_sp2        1 RES
    1067 _CH         13.9044    25.9739    18.3936 CH_sp2        1 RES
    1068 _CH         12.5294    25.9832    18.6565 CH_sp2        1 RES
    1069 _CH         15.1520    15.0599    28.0222 CH_sp2        1 RES
    1070 _CH         15.4522    16.4265    27.9725 CH_sp2        1 RES
    1071 _CH         15.8356    17.1018    29.1373 CH_sp2        1 RES
    1072 _CH         15.9188    16.4106    30.3520 CH_sp2        1 RES
    1073 _CH         15.6185    15.0441    30.4017 CH_sp2        1 RES
    1074 _CH         15.2351    14.3688    29.2369 CH_sp2        1 RES
    1075 _CH          9.0459     3.3814    16.5864 CH_sp2        1 RES
    1076 _CH          9.6397     2.3814    15.8071 CH_sp2        1 RES
    1077 _CH         10.9071     2.5885    15.2494 CH_sp2        1 RES
    1078 _CH         11.5806     3.7957    15.4711 CH_sp2        1 RES
    1079 _CH         10.9868     4.7957    16.2505 CH_sp2        1 RES
    1080 _CH          9.7195     4.5885    16.8081 CH_sp2        1 RES
    1081 _CH         20.5458    37.3427    20.9648 CH_sp2        1 RES
    1082 _CH         21.8959    37.1487    21.2803 CH_sp2        1 RES
    1083 _CH         22.5328    38.0043    22.1870 CH_sp2        1 RES
    1084 _CH         21.8196    39.0540    22.7783 CH_sp2        1 RES
    1085 _CH         20.4695    39.2480    22.4627 CH_sp2        1 RES
    1086 _CH         19.8326    38.3924    21.5560 CH_sp2        1 RES
    1087 _CH          8.4731    30.2608    35.4847 CH_sp2        1 RES
    1088 _CH          7.2538    29.6442    35.7899 CH_sp2        1 RES
    1089 _CH          7.2087    28.2672    36.0385 CH_sp2        1 RES
    1090 _CH          8.3828    27.5068    35.9819 CH_sp2        1 RES
    1091 _CH          9.6021    28.1234    35.6766 CH_sp2        1 RES
    1092 _CH          9.6472    29.5004    35.4280 CH_sp2        1 RES
    1093 _CH          6.4586     4.1952    25.9457 CH_sp2        1 RES
    1094 _CH          7.6373     4.8362    25.5460 CH_sp2        1 RES
    1095 _CH          8.6013     5.1866    26.4988 CH_sp2        1 RES
    1096 _CH          8.3866     4.8960    27.8514 CH_sp2        1 RES
    1097 _CH          7.2079     4.2550    28.2511 CH_sp2        1 RES
    1098 _CH          6.2439     3.9046    27.2983 CH_sp2        1 RES
    1099 _CH         10.4564    27.1579    37.7853 CH_sp2        1 RES
    1100 _CH         11.4166    27.7230    36.9375 CH_sp2        1 RES
    1101 _CH         11.8005    29.0586    37.1067 CH_sp2        1 RES
    1102 _CH         11.2241    29.8292    38.1236 CH_sp2        1 RES
    1103 _CH         10.2639    29.2641    38.9713 CH_sp2        1 RES
    1104 _CH          9.8801    27.9284    38.8021 CH_sp2        1 RES
    1105 _CH         30.7976    23.9984     5.6251 CH_sp2        1 RES
    1106 _CH         30.8552    23.8490     7.0159 CH_sp2        1 RES
    1107 _CH         29.8738    23.1046     7.6812 CH_sp2        1 RES
    1108 _CH         28.8348    22.5095     6.9556 CH_sp2        1 RES
    1109 _CH         28.7773    22.6589     5.5648 CH_sp2        1 RES
    1110 _CH         29.7587    23.4033     4.8995 CH_sp2        1 RES
    1111 _CH         22.1846    18.2391    27.9658 CH_sp2        1 RES
    1112 _CH         22.1011    19.6352    27.9026 CH_sp2        1 RES
    1113 _CH         21.6904    20.2590    26.7184 CH_sp2        1 RES
    1114 _CH         21.3631    19.4866    25.5975 CH_sp2        1 RES
    1115 _CH         21.4466    18.0906    25.6608 CH_sp2        1 RES
    1116 _CH         21.8574    17.4668    26.8449 CH_sp2        1 RES
    1117 _CH         39.9611    14.4732    28.4836 CH_sp2        1 RES
    1118 _CH         40.1681    15.7123    29.1015 CH_sp2        1 RES
    1119 _CH         39.1769    16.6991    29.0405 CH_sp2        1 RES
    1120 _CH         37.9788    16.4469    28.3616 CH_sp2        1 RES
    1121 _CH         37.7719    15.2078    27.7437 CH_sp2        1 RES
    1122 _CH         38.7630    14.2209    27.8047 CH_sp2        1 RES
    1123 _CH         26.3760    34.6184     8.5323 CH_sp2        1 RES
    1124 _CH         26.2680    34.2652     9.8827 CH_sp2        1 RES
    1125 _CH         25.7640    33.0086    10.2394 CH_sp2        1 RES
    1126 _CH         25.3682    32.1054     9.2457 CH_sp2        1 RES
    1127 _CH         25.4762    32.4586     7.8953 CH_sp2        1 RES
    1128 _CH         25.9801    33.7151     7.5386 CH_sp2        1 RES
    1129 _CH         37.6785    27.8337     4.8923 CH_sp2        1 RES
    1130 _CH         38.5363    28.1185     5.9615 CH_sp2        1 RES
    1131 _CH         39.0682    29.4052     6.1086 CH_sp2        1 RES
    1132 _CH         38.7422    30.4070     5.1867 CH_sp2        1 RES
    1133 _CH         37.8844    30.1222     4.1175 CH_sp2        1 RES
    1134 _CH         37.3525    28.8356     3.9704 CH_sp2        1 RES
    1135 _CH         11.7359     7.7138    13.9294 CH_sp2        1 RES
    1136 _CH         13.0199     8.0068    14.4042 CH_sp2        1 RES
    1137 _CH         14.0344     7.0458    14.3181 CH_sp2        1 RES
    1138 _CH         13.7648     5.7917    13.7572 CH_sp2        1 RES
    1139 _CH         12.4807     5.4987    13.2825 CH_sp2        1 RES
    1140 _CH         11.4663     6.4597    13.3685 CH_sp2        1 RES
    1141 _CH          6.9274    27.7240    40.1468 CH_sp2        1 RES
    1142 _CH          6.4199    26.4440    39.8937 CH_sp2        1 RES
    1143 _CH          5.0567    26.2719    39.6254 CH_sp2        1 RES
    1144 _CH          4.2009    27.3798    39.6101 CH_sp2        1 RES
    1145 _CH          4.7084    28.6598    39.8632 CH_sp2        1 RES
    1146 _CH          6.0716    28.8319    40.1316 CH_sp2        1 RES
    1147 _CH         13.7000    26.9556     7.0208 CH_sp2        1 RES
    1148 _CH         14.7809    27.8277     6.8442 CH_sp2        1 RES
    1149 _CH         16.0178    27.3315     6.4153 CH_sp2        1 RES
    1150 _CH         16.1737    25.9633     6.1630 CH_sp2        1 RES
    1151 _CH         15.0928    25.0912     6.3396 CH_sp2        1 RES
    1152 _CH         13.8560    25.5874     6.7685 CH_sp2        1 RES
    1153 _CH         37.4951    20.2057    31.7337 CH_sp2        1 RES
    1154 _CH         37.4448    21.6017    31.8273 CH_sp2        1 RES
    1155 _CH         36.2129    22.2637    31.7613 CH_sp2        1 RES
    1156 _CH         35.0315    21.5298    31.6016 CH_sp2        1 RES
    1157 _CH         35.0818    20.1338    31.5080 CH_sp2        1 RES
    1158 _CH         36.3136    19.4718    31.5741 CH_sp2        1 RES
    1159 _CH          3.8597     9.0968     7.9909 CH_sp2        1 RES
    1160 _CH          3.2998     9.9159     7.0031 CH_sp2        1 RES
    1161 _CH          3.8625     9.9516     5.7217 CH_sp2        1 RES
    1162 _CH          4.9850     9.1683     5.4280 CH_sp2        1 RES
    1163 _CH          5.5449     8.3492     6.4157 CH_sp2        1 RES
    1164 _CH          4.9822     8.3135     7.6972 CH_sp2        1 RES
    1165 _CH         11.9745    22.0903    34.2944 CH_sp2        1 RES
    1166 _CH         11.2987    23.2682    33.9538 CH_sp2        1 RES
    1167 _CH         11.8553    24.1491    33.0187 CH_sp2        1 RES
    1168 _CH         13.0875    23.8521    32.4243 CH_sp2        1 RES
    1169 _CH         13.7633    22.6742    32.7650 CH_sp2        1 RES
    1170 _CH         13.2067    21.7933    33.7000 CH_sp2        1 RES
    1171 _CH         28.7889    28.3454     8.3800 CH_sp2        1 RES
    1172 _CH         29.7450    28.3713     9.4024 CH_sp2        1 RES
    1173 _CH         31.0585    28.7669     9.1226 CH_sp2        1 RES
    1174 _CH         31.4159    29.1366     7.8205 CH_sp2        1 RES
    1175 _CH         30.4598    29.1108     6.7981 CH_sp2        1 RES
    1176 _CH         29.1463    28.7152     7.0779 CH_sp2        1 RES
    1177 _CH          5.2301    35.8649     6.7991 CH_sp2        1 RES
    1178 _CH          6.5647    36.1308     7.1279 CH_sp2        1 RES
    1179 _CH          7.3858    35.1029     7.6067 CH_sp2        1 RES
    1180 _CH          6.8723    33.8091     7.7566 CH_sp2        1 RES
    1181 _CH          5.5377    33.5433     7.4278 CH_sp2        1 RES
    1182 _CH          4.7166    34.5712     6.9491 CH_sp2        1 RES
    1183 _CH          3.2154    14.9965    31.0710 CH_sp2        1 RES
    1184 _CH          3.2438    14.0401    32.0931 CH_sp2        1 RES
    1185 _CH          3.2046    12.6768    31.7773 CH_sp2        1 RES
    1186 _CH          3.1369    12.2698    30.4395 CH_sp2        1 RES
    1187 _CH          3.1085    13.2261    29.4174 CH_sp2        1 RES
    1188 _CH          3.1477    14.5895    29.7332 CH_sp2        1 RES
    1189 _CH         25.9976    29.3902    23.9677 CH_sp2        1 RES
    1190 _CH         26.0431    30.6988    23.4722 CH_sp2        1 RES
    1191 _CH         26.7015    30.9683    22.2664 CH_sp2        1 RES
    1192 _CH         27.3144    29.9291    21.5561 CH_sp2        1 RES
    1193 _CH         27.2689    28.6205    22.0516 CH_sp2        1 RES
    1194 _CH         26.6105    28.3511    23.2574 CH_sp2        1 RES
    1195 _CH          8.3774     4.2471    37.4697 CH_sp2        1 RES
    1196 _CH          8.1960     5.3196    38.3511 CH_sp2        1 RES
    1197 _CH          9.2442     6.2174    38.5863 CH_sp2        1 RES
    1198 _CH         10.4738     6.0426    37.9402 CH_sp2        1 RES
    1199 _CH         10.6552     4.9701    37.0588 CH_sp2        1 RES
    1200 _CH          9.6070     4.0723    36.8236 CH_sp2        1 RES
    1201 _CH         29.6880    32.2592    12.6187 CH_sp2        1 RES
    1202 _CH         30.8460    33.0340    12.7551 CH_sp2        1 RES
    1203 _CH         32.0642    32.4220    13.0739 CH_sp2        1 RES
    1204 _CH         32.1243    31.0353    13.2564 CH_sp2        1 RES
    1205 _CH         30.9662    30.2605    13.1200 CH_sp2        1 RES
    1206 _CH         29.7481    30.8724    12.8012 CH_sp2        1 RES
    1207 _CH         35.2673    17.3982    30.2768 CH_sp2        1 RES
    1208 _CH         35.6611    16.2434    29.5902 CH_sp2        1 RES
    1209 _CH         34.9462    15.8211    28.4630 CH_sp2        1 RES
    1210 _CH         33.8375    16.5537    28.0224 CH_sp2        1 RES
    1211 _CH         33.4437    17.7085    28.7089 CH_sp2        1 RES
    1212 _CH         34.1586    18.1307    29.8362 CH_sp2        1 RES
    1213 _CH         26.5057    34.5942    38.8906 CH_sp2        1 RES
    1214 _CH         25.4676    35.3738    39.4147 CH_sp2        1 RES
    1215 _CH         25.3846    36.7345    39.0962 CH_sp2        1 RES
    1216 _CH         26.3397    37.3157    38.2536 CH_sp2        1 RES
    1217 _CH         27.3778    36.5362    37.7295 CH_sp2        1 RES
    1218 _CH         27.4608    35.1754    38.0480 CH_sp2        1 RES
    1219 _CH         23.1677    31.3028    31.2484 CH_sp2        1 RES
    1220 _CH         22.6403    30.1445    30.6652 CH_sp2        1 RES
    1221 _CH         23.3797    29.4464    29.7028 CH_sp2        1 RES
    1222 _CH         24.6464    29.9067    29.3237 CH_sp2        1 RES
    1223 _CH         25.1737    31.0650    29.9070 CH_sp2        1 RES
    1224 _CH         24.4344    31.7630    30.8694 CH_sp2        1 RES
    1225 _CH         28.8351    24.5620    28.5547 CH_sp2        1 RES
    1226 _CH         28.6329    23.4751    27.6957 CH_sp2        1 RES
    1227 _CH         28.9727    23.5803    26.3417 CH_sp2        1 RES
    1228 _CH         29.5148    24.7724    25.8466 CH_sp2        1 RES
    1229 _CH         29.7170    25.8593    26.7055 CH_sp2        1 RES
    1230 _CH         29.3772    25.7541    28.0596 CH_sp2        1 RES
    1231 _CH         36.6858    34.9427    15.2956 CH_sp2        1 RES
    1232 _CH         37.5259    33.8251    15.3674 CH_sp2        1 RES
    1233 _CH         36.9761    32.5406    15.4555 CH_sp2        1 RES
    1234 _CH         35.5862    32.3737    15.4718 CH_sp2        1 RES
    1235 _CH         34.7461    33.4913    15.3999 CH_sp2        1 RES
    1236 _CH         35.2958    34.7758    15.3118 CH_sp2        1 RES
    1237 _CH         38.1401    17.1788     7.1290 CH_sp2        1 RES
    1238 _CH         37.3572    18.3279     7.2916 CH_sp2        1 RES
    1239 _CH         37.9627    19.5900     7.3157 CH_sp2        1 RES
    1240 _CH         39.3513    19.7029     7.1773 CH_sp2        1 RES
    1241 _CH         40.1343    18.5537     7.0147 CH_sp2        1 RES
    1242 _CH         39.5287    17.2917     6.9906 CH_sp2        1 RES
    1243 _CH         22.5655    15.0792    28.4933 CH_sp2        1 RES
    1244 _CH         21.6120    15.9911    28.9614 CH_sp2        1 RES
    1245 _CH         20.2488    15.7439    28.7598 CH_sp2        1 RES
    1246 _CH         19.8392    14.5847    28.0902 CH_sp2        1 RES
    1247 _CH         20.7927    13.6727    27.6221 CH_sp2        1 RES
    1248 _CH         22.1559    13.9200    27.8237 CH_sp2        1 RES
    1249 _CH          4.3118    32.7290    13.9563 CH_sp2        1 RES
    1250 _CH          4.3273    34.1284    13.9163 CH_sp2        1 RES
    1251 _CH          5.5456    34.8127    13.8299 CH_sp2        1 RES
    1252 _CH          6.7483    34.0977    13.7835 CH_sp2        1 RES
    1253 _CH          6.7328    32.6984    13.8235 CH_sp2        1 RES
    1254 _CH          5.5145    32.0140    13.9099 CH_sp2        1 RES
    1255 _CH         25.6439    27.4950    29.8233 CH_sp2        1 RES
    1256 _CH         26.7912    27.9325    30.4958 CH_sp2        1 RES
    1257 _CH         26.6902    28.4338    31.7991 CH_sp2        1 RES
    1258 _CH         25.4420    28.4975    32.4298 CH_sp2        1 RES
    1259 _CH         24.2947    28.0600    31.7573 CH_sp2        1 RES
    1260 _CH         24.3956    27.5587    30.4540 CH_sp2        1 RES
    1261 _CH          5.6541     3.1968    22.9270 CH_sp2        1 RES
    1262 _CH          5.4459     4.5626    22.7006 CH_sp2        1 RES
    1263 _CH          4.1431     5.0630    22.5895 CH_sp2        1 RES
    1264 _CH          3.0486     4.1977    22.7047 CH_sp2        1 RES
    1265 _CH          3.2569     2.8319    22.9311 CH_sp2        1 RES
    1266 _CH          4.5596     2.3315    23.0422 CH_sp2        1 RES
    1267 _CH         25.0762    21.7161    16.4654 CH_sp2        1 RES
    1268 _CH         25.8167    22.7789    15.9342 CH_sp2        1 RES
    1269 _CH         26.9808    23.2126    16.5798 CH_sp2        1 RES
    1270 _CH         27.4043    22.5836    17.7566 CH_sp2        1 RES
    1271 _CH         26.6638    21.5209    18.2878 CH_sp2        1 RES
    1272 _CH         25.4997    21.0871    17.6422 CH_sp2        1 RES
    1273 _CH         18.3897    29.3267    16.9593 CH_sp2        1 RES
    1274 _CH         19.0615    28.1812    17.4026 CH_sp2        1 RES
    1275 _CH         20.0265    27.5765    16.5883 CH_sp2        1 RES
    1276 _CH         20.3197    28.1172    15.3307 CH_sp2        1 RES
    1277 _CH         19.6479    29.2627    14.8873 CH_sp2        1 RES
    1278 _CH         18.6829    29.8674    15.7016 CH_sp2        1 RES
    1279 _CH         13.6205     2.6341    29.1712 CH_sp2        1 RES
    1280 _CH         14.0330     2.3354    27.8671 CH_sp2        1 RES
    1281 _CH         15.3725     2.0186    27.6118 CH_sp2        1 RES
    1282 _CH         16.2997     2.0006    28.6606 CH_sp2        1 RES
    1283 _CH         15.8873     2.2993    29.9647 CH_sp2        1 RES
    1284 _CH         14.5477     2.6160    30.2200 CH_sp2        1 RES
    1285 _CH         20.3886    27.8295     8.6889 CH_sp2        1 RES
    1286 _CH         19.9028    26.9165     9.6326 CH_sp2        1 RES
    1287 _CH         18.8566    26.0500     9.2942 CH_sp2        1 RES
    1288 _CH         18.2961    26.0965     8.0121 CH_sp2        1 RES
    1289 _CH         18.7818    27.0095     7.0685 CH_sp2        1 RES
    1290 _CH         19.8280    27.8760     7.4069 CH_sp2        1 RES
    1291 _CH         20.3546    31.9609    28.1662 CH_sp2        1 RES
    1292 _CH         19.4018    32.0134    29.1905 CH_sp2        1 RES
    1293 _CH         19.6981    32.6736    30.3890 CH_sp2        1 RES
    1294 _CH         20.9473    33.2813    30.5631 CH_sp2        1 RES
    1295 _CH         21.9001    33.2288    29.5387 CH_sp2        1 RES
    1296 _CH         21.6038    32.5686    28.3402 CH_sp2        1 RES
    1297 _CH         23.8191    17.8910    34.4377 CH_sp2        1 RES
    1298 _CH         22.9138    18.7583    33.8146 CH_sp2        1 RES
    1299 _CH         21.9227    19.3964    34.5700 CH_sp2        1 RES
    1300 _CH         21.8369    19.1673    35.9484 CH_sp2        1 RES
    1301 _CH         22.7423    18.3000    36.5715 CH_sp2        1 RES
    1302 _CH         23.7333    17.6619    35.8161 CH_sp2        1 RES
    1303 _CH         11.6983    16.2967    27.4297 CH_sp2        1 RES
    1304 _CH         12.6424    16.9411    26.6214 CH_sp2        1 RES
    1305 _CH         12.7933    16.5611    25.2824 CH_sp2        1 RES
    1306 _CH         12.0001    15.5368    24.7517 CH_sp2        1 RES
    1307 _CH         11.0559    14.8925    25.5600 CH_sp2        1 RES
    1308 _CH         10.9050    15.2725    26.8990 CH_sp2        1 RES
    1309 _CH          8.6553     9.3359    23.9145 CH_sp2        1 RES
    1310 _CH          8.8426    10.7184    23.7979 CH_sp2        1 RES
    1311 _CH          9.7546    11.3742    24.6333 CH_sp2        1 RES
    1312 _CH         10.4795    10.6475    25.5854 CH_sp2        1 RES
    1313 _CH         10.2923     9.2650    25.7021 CH_sp2        1 RES
    1314 _CH          9.3802     8.6092    24.8666 CH_sp2        1 RES
    1315 _CH          2.5247    21.7151    36.5835 CH_sp2        1 RES
    1316 _CH          2.0188    20.8774    37.5847 CH_sp2        1 RES
    1317 _CH          2.7331    20.6995    38.7755 CH_sp2        1 RES
    1318 _CH          3.9533    21.3592    38.9652 CH_sp2        1 RES
    1319 _CH          4.4592    22.1968    37.9640 CH_sp2        1 RES
    1320 _CH          3.7449    22.3748    36.7731 CH_sp2        1 RES
    1321 _CH          9.6115    34.9181    26.9416 CH_sp2        1 RES
    1322 _CH          8.5437    35.4199    27.6954 CH_sp2        1 RES
    1323 _CH          8.3158    34.9414    28.9912 CH_sp2        1 RES
    1324 _CH          9.1556    33.9612    29.5333 CH_sp2        1 RES
    1325 _CH         10.2234    33.4595    28.7796 CH_sp2        1 RES
    1326 _CH         10.4513    33.9379    27.4837 CH_sp2        1 RES
    1327 _CH         16.2874    35.4378     6.3805 CH_sp2        1 RES
    1328 _CH         15.7072    34.7462     5.3104 CH_sp2        1 RES
    1329 _CH         15.0879    35.4537     4.2731 CH_sp2        1 RES
    1330 _CH         15.0488    36.8527     4.3059 CH_sp2        1 RES
    1331 _CH         15.6290    37.5443     5.3760 CH_sp2        1 RES
    1332 _CH         16.2483    36.8369     6.4133 CH_sp2        1 RES
    1333 _CH          2.0130     8.1009    37.0628 CH_sp2        1 RES
    1334 _CH          2.3333     8.9691    36.0122 CH_sp2        1 RES
    1335 _CH          3.6050     9.5510    35.9480 CH_sp2        1 RES
    1336 _CH          4.5565     9.2646    36.9342 CH_sp2        1 RES
    1337 _CH          4.2362     8.3964    37.9847 CH_sp2        1 RES
    1338 _CH          2.9645     7.8145    38.0490 CH_sp2        1 RES
    1339 _CH         18.0607     5.9230    12.0782 CH_sp2        1 RES
    1340 _CH         17.0610     5.3580    12.8790 CH_sp2        1 RES
    1341 _CH         16.0438     6.1651    13.4025 CH_sp2        1 RES
    1342 _CH         16.0264     7.5372    13.1251 CH_sp2        1 RES
    1343 _CH         17.0261     8.1023    12.3243 CH_sp2        1 RES
    1344 _CH         18.0432     7.2952    11.8008 CH_sp2        1 RES
    1345 _CH         16.5768    33.0633     2.5774 CH_sp2        1 RES
    1346 _CH         16.0177    34.3096     2.2708 CH_sp2        1 RES
    1347 _CH         16.8497    35.4026     2.0002 CH_sp2        1 RES
    1348 _CH         18.2408    35.2492     2.0363 CH_sp2        1 RES
    1349 _CH         18.7999    34.0029     2.3428 CH_sp2        1 RES
    1350 _CH         17.9679    32.9099     2.6134 CH_sp2        1 RES
    1351 _CH         27.3530    23.0342    23.1324 CH_sp2        1 RES
    1352 _CH         27.7384    21.6910    23.0465 CH_sp2        1 RES
    1353 _CH         29.0928    21.3450    23.1239 CH_sp2        1 RES
    1354 _CH         30.0618    22.3422    23.2871 CH_sp2        1 RES
    1355 _CH         29.6764    23.6854    23.3730 CH_sp2        1 RES
    1356 _CH         28.3221    24.0314    23.2956 CH_sp2        1 RES
    1357 _CH          7.1490    31.6792     4.9895 CH_sp2        1 RES
    1358 _CH          6.1931    30.6575     5.0378 CH_sp2        1 RES
    1359 _CH          6.0390    29.8977     6.2035 CH_sp2        1 RES
    1360 _CH          6.8406    30.1595     7.3209 CH_sp2        1 RES
    1361 _CH          7.7965    31.1813     7.2726 CH_sp2        1 RES
    1362 _CH          7.9507    31.9411     6.1069 CH_sp2        1 RES
    1363 _CH         12.0854    14.4949    10.8487 CH_sp2        1 RES
    1364 _CH         12.5316    13.3405    10.1942 CH_sp2        1 RES
    1365 _CH         13.8992    13.1521     9.9617 CH_sp2        1 RES
    1366 _CH         14.8206    14.1179    10.3838 CH_sp2        1 RES
    1367 _CH         14.3744    15.2723    11.0383 CH_sp2        1 RES
    1368 _CH         13.0068    15.4607    11.2707 CH_sp2        1 RES
    1369 _CH         12.6134    32.5832    13.5829 CH_sp2        1 RES
    1370 _CH         12.0380    32.9838    12.3711 CH_sp2        1 RES
    1371 _CH         10.7130    32.6398    12.0778 CH_sp2        1 RES
    1372 _CH          9.9634    31.8952    12.9963 CH_sp2        1 RES
    1373 _CH         10.5388    31.4945    14.2081 CH_sp2        1 RES
    1374 _CH         11.8638    31.8385    14.5014 CH_sp2        1 RES
    1375 _CH         24.4611    33.9595    35.2766 CH_sp2        1 RES
    1376 _CH         23.1059    33.8287    34.9508 CH_sp2        1 RES
    1377 _CH         22.6731    32.7440    34.1787 CH_sp2        1 RES
    1378 _CH         23.5956    31.7901    33.7324 CH_sp2        1 RES
    1379 _CH         24.9508    31.9210    34.0582 CH_sp2        1 RES
    1380 _CH         25.3836    33.0056    34.8303 CH_sp2        1 RES
    1381 _CH         33.1516    15.3336    31.4268 CH_sp2        1 RES
    1382 _CH         32.1939    14.3234    31.2774 CH_sp2        1 RES
    1383 _CH         30.8342    14.6514    31.2153 CH_sp2        1 RES
    1384 _CH         30.4323    15.9896    31.3026 CH_sp2        1 RES
    1385 _CH         31.3900    16.9998    31.4520 CH_sp2        1 RES
    1386 _CH         32.7496    16.6718    31.5141 CH_sp2        1 RES
    1387 _CH         17.9072    35.5477    34.4376 CH_sp2        1 RES
    1388 _CH         17.4957    36.7837    33.9247 CH_sp2        1 RES
    1389 _CH         17.6919    37.0799    32.5705 CH_sp2        1 RES
    1390 _CH         18.2995    36.1402    31.7293 CH_sp2        1 RES
    1391 _CH         18.7110    34.9043    32.2422 CH_sp2        1 RES
    1392 _CH         18.5148    34.6080    33.5964 CH_sp2        1 RES
    1393 _CH          2.0821    31.6390    30.5474 CH_sp2        1 RES
    1394 _CH          3.1602    32.4210    30.9788 CH_sp2        1 RES
    1395 _CH          4.4456    31.8694    31.0380 CH_sp2        1 RES
    1396 _CH          4.6529    30.5358    30.6656 CH_sp2        1 RES
    1397 _CH          3.5748    29.7538    30.2341 CH_sp2        1 RES
    1398 _CH          2.2894    30.3054    30.1750 CH_sp2        1 RES
    1399 _CH          9.5134     4.3533    23.7830 CH_sp2        1 RES
    1400 _CH          9.0319     3.7032    22.6404 CH_sp2        1 RES
    1401 _CH          9.2894     4.2354    21.3714 CH_sp2        1 RES
    1402 _CH         10.0283     5.4177    21.2449 CH_sp2        1 RES
    1403 _CH         10.5098     6.0678    22.3875 CH_sp2        1 RES
    1404 _CH         10.2524     5.5357    23.6565 CH_sp2        1 RES
    1405 _CH         13.0696     2.0739    18.0362 CH_sp2        1 RES
    1406 _CH         12.0900     3.0707    17.9545 CH_sp2        1 RES
    1407 _CH         12.4639     4.4197    17.9356 CH_sp2        1 RES
    1408 _CH         13.8174     4.7719    17.9984 CH_sp2        1 RES
    1409 _CH         14.7970     3.7751    18.0801 CH_sp2        1 RES
    1410 _CH         14.4231     2.4261    18.0990 CH_sp2        1 RES
    1411 _CH         14.7854    15.0085    25.8534 CH_sp2        1 RES
    1412 _CH         15.6576    15.3891    24.8265 CH_sp2        1 RES
    1413 _CH         15.4234    14.9606    23.5145 CH_sp2        1 RES
    1414 _CH         14.3170    14.1515    23.2293 CH_sp2        1 RES
    1415 _CH         13.4449    13.7709    24.2562 CH_sp2        1 RES
    1416 _CH         13.6791    14.1994    25.5683 CH_sp2        1 RES
    1417 _CH          9.3199    39.3725     6.7389 CH_sp2        1 RES
    1418 _CH          9.4205    38.0388     7.1524 CH_sp2        1 RES
    1419 _CH          8.6270    37.0567     6.5475 CH_sp2        1 RES
    1420 _CH          7.7330    37.4084     5.5291 CH_sp2        1 RES
    1421 _CH          7.6325    38.7421     5.1157 CH_sp2        1 RES
    1422 _CH          8.4259    39.7242     5.7205 CH_sp2        1 RES
    1423 _CH         19.4062    22.3369    30.9390 CH_sp2        1 RES
    1424 _CH         19.3937    21.4540    32.0254 CH_sp2        1 RES
    1425 _CH         18.3565    21.5135    32.9639 CH_sp2        1 RES
    1426 _CH         17.3317    22.4558    32.8158 CH_sp2        1 RES
    1427 _CH         17.3442    23.3387    31.7294 CH_sp2        1 RES
    1428 _CH         18.3814    23.2792    30.7910 CH_sp2        1 RES
    1429 _CH          6.0104     5.5112    38.0533 CH_sp2        1 RES
    1430 _CH          4.8516     6.2967    38.0679 CH_sp2        1 RES
    1431 _CH          3.9387     6.1778    39.1227 CH_sp2        1 RES
    1432 _CH          4.1846     5.2735    40.1627 CH_sp2        1 RES
    1433 _CH          5.3433     4.4880    40.1480 CH_sp2        1 RES
    1434 _CH          6.2563     4.6068    39.0933 CH_sp2        1 RES
    1435 _CH         39.5547    33.5104    28.0524 CH_sp2        1 RES
    1436 _CH         39.3319    32.5719    27.0378 CH_sp2        1 RES
    1437 _CH         39.5274    32.9293    25.6984 CH_sp2        1 RES
    1438 _CH         39.9457    34.2252    25.3736 CH_sp2        1 RES
    1439 _CH         40.1685    35.1638    26.3882 CH_sp2        1 RES
    1440 _CH         39.9730    34.8064    27.7276 CH_sp2        1 RES
    1441 _CH         31.8922    15.3285     6.9839 CH_sp2        1 RES
    1442 _CH         33.1047    14.9479     6.3965 CH_sp2        1 RES
    1443 _CH         33.1065    14.1116     5.2737 CH_sp2        1 RES
    1444 _CH         31.8958    13.6559     4.7383 CH_sp2        1 RES
    1445 _CH         30.6833    14.0365     5.3257 CH_sp2        1 RES
    1446 _CH         30.6815    14.8728     6.4485 CH_sp2        1 RES
    1447 _CH         20.3318     4.4860    26.0786 CH_sp2        1 RES
    1448 _CH         20.9914     4.4981    27.3134 CH_sp2        1 RES
    1449 _CH         21.2487     3.2949    27.9814 CH_sp2        1 RES
    1450 _CH         20.8464     2.0797    27.4145 CH_sp2        1 RES
    1451 _CH         20.1868     2.0676    26.1797 CH_sp2        1 RES
    1452 _CH         19.9295     3.2708    25.5117 CH_sp2        1 RES
    1453 _CH         39.4207     5.1129    11.7904 CH_sp2        1 RES
    1454 _CH         38.7576     4.0524    12.4193 CH_sp2        1 RES
    1455 _CH         37.3801     4.1304    12.6569 CH_sp2        1 RES
    1456 _CH         36.6657     5.2691    12.2655 CH_sp2        1 RES
    1457 _CH         37.3288     6.3296    11.6366 CH_sp2        1 RES
    1458 _CH         38.7063     6.2516    11.3991 CH_sp2        1 RES
    1459 _CH         30.4212     3.3818    22.8034 CH_sp2        1 RES
    1460 _CH         29.7614     3.9575    21.7111 CH_sp2        1 RES
    1461 _CH         28.3726     4.1308    21.7442 CH_sp2        1 RES
    1462 _CH         27.6436     3.7285    22.8697 CH_sp2        1 RES
    1463 _CH         28.3034     3.1528    23.9620 CH_sp2        1 RES
    1464 _CH         29.6922     2.9794    23.9289 CH_sp2        1 RES
    1465 _CH         22.8788    22.2556    32.4985 CH_sp2        1 RES
    1466 _CH         23.9955    22.9729    32.0531 CH_sp2        1 RES
    1467 _CH         24.2637    24.2446    32.5736 CH_sp2        1 RES
    1468 _CH         23.4153    24.7989    33.5394 CH_sp2        1 RES
    1469 _CH         22.2986    24.0816    33.9848 CH_sp2        1 RES
    1470 _CH         22.0303    22.8099    33.4644 CH_sp2        1 RES
    1471 _CH         32.3431     6.9584     6.7490 CH_sp2        1 RES
    1472 _CH         33.4657     7.0343     5.9159 CH_sp2        1 RES
    1473 _CH         33.3375     6.7855     4.5441 CH_sp2        1 RES
    1474 _CH         32.0867     6.4609     4.0055 CH_sp2        1 RES
    1475 _CH         30.9641     6.3850     4.8386 CH_sp2        1 RES
    1476 _CH         31.0923     6.6338     6.2103 CH_sp2        1 RES
    1477 _CH         15.7626     5.0665    36.8412 CH_sp2        1 RES
    1478 _CH         16.5934     3.9418    36.7728 CH_sp2        1 RES
    1479 _CH         16.0407     2.6577    36.8482 CH_sp2        1 RES
    1480 _CH         14.6573     2.4983    36.9918 CH_sp2        1 RES
    1481 _CH         13.8265     3.6231    37.0602 CH_sp2        1 RES
    1482 _CH         14.3791     4.9072    36.9848 CH_sp2        1 RES
    1483 _CH         32.3689    29.8825    36.3708 CH_sp2        1 RES
    1484 _CH         33.4057    29.0195    36.7452 CH_sp2        1 RES
    1485 _CH         34.7260    29.4841    36.7776 CH_sp2        1 RES
    1486 _CH         35.0094    30.8118    36.4356 CH_sp2        1 RES
    1487 _CH         33.9725    31.6748    36.0612 CH_sp2        1 RES
    1488 _CH         32.6523    31.2102    36.0288 CH_sp2        1 RES
    1489 _CH         23.1581     4.0438    14.8665 CH_sp2        1 RES
    1490 _CH         23.3306     3.8782    16.2459 CH_sp2        1 RES
    1491 _CH         22.4310     3.0907    16.9743 CH_sp2        1 RES
    1492 _CH         21.3588     2.4689    16.3233 CH_sp2        1 RES
    1493 _CH         21.1863     2.6345    14.9438 CH_sp2        1 RES
    1494 _CH         22.0859     3.4220    14.2154 CH_sp2        1 RES
    1495 _CH         14.3703    23.6024    11.6052 CH_sp2        1 RES
    1496 _CH         13.7316    24.6548    12.2719 CH_sp2        1 RES
    1497 _CH         12.4665    24.4590    12.8386 CH_sp2        1 RES
    1498 _CH         11.8401    23.2110    12.7386 CH_sp2        1 RES
    1499 _CH         12.4789    22.1586    12.0719 CH_sp2        1 RES
    1500 _CH         13.7440    22.3543    11.5052 CH_sp2        1 RES
    1501 _CH         36.5381    36.3188     8.4289 CH_sp2        1 RES
    1502 _CH         36.6514    37.6002     8.9812 CH_sp2        1 RES
    1503 _CH         35.7882    38.6208     8.5648 CH_sp2        1 RES
    1504 _CH         34.8116    38.3598     7.5962 CH_sp2        1 RES
    1505 _CH         34.6983    37.0784     7.0439 CH_sp2        1 RES
    1506 _CH         35.5616    36.0579     7.4602 CH_sp2        1 RES
    1507 _CH          5.2566    14.4849    20.1849 CH_sp2        1 RES
    1508 _CH          4.6837    13.2154    20.0430 CH_sp2        1 RES
    1509 _CH          5.5035    12.0863    19.9280 CH_sp2        1 RES
    1510 _CH          6.8961    12.2268    19.9550 CH_sp2        1 RES
    1511 _CH          7.4691    13.4963    20.0969 CH_sp2        1 RES
    1512 _CH          6.6493    14.6253    20.2119 CH_sp2        1 RES
    1513 _CH          4.5431    33.4647     9.7343 CH_sp2        1 RES
    1514 _CH          5.4441    34.5358     9.7663 CH_sp2        1 RES
    1515 _CH          4.9703    35.8513     9.6966 CH_sp2        1 RES
    1516 _CH          3.5956    36.0958     9.5950 CH_sp2        1 RES
    1517 _CH          2.6946    35.0247     9.5630 CH_sp2        1 RES
    1518 _CH          3.1684    33.7092     9.6326 CH_sp2        1 RES
    1519 _CH          3.1860     8.2773    16.2254 CH_sp2        1 RES
    1520 _CH          2.1160     8.0029    15.3652 CH_sp2        1 RES
    1521 _CH          2.3532     7.7694    14.0053 CH_sp2        1 RES
    1522 _CH          3.6604     7.8104    13.5056 CH_sp2        1 RES
    1523 _CH          4.7303     8.0849    14.3658 CH_sp2        1 RES
    1524 _CH          4.4931     8.3183    15.7257 CH_sp2        1 RES
    1525 _CH          9.2937    26.3911     6.3839 CH_sp2        1 RES
    1526 _CH          8.8167    25.2003     5.8232 CH_sp2        1 RES
    1527 _CH          8.8870    25.0008     4.4393 CH_sp2        1 RES
    1528 _CH          9.4342    25.9921     3.6160 CH_sp2        1 RES
    1529 _CH          9.9113    27.1829     4.1767 CH_sp2        1 RES
    1530 _CH          9.8410    27.3824     5.5606 CH_sp2        1 RES
    1531 _CH         31.6002    30.4735    33.0673 CH_sp2        1 RES
    1532 _CH         32.6534    29.5542    32.9916 CH_sp2        1 RES
    1533 _CH         32.4027    28.1871    33.1590 CH_sp2        1 RES
    1534 _CH         31.0987    27.7392    33.4021 CH_sp2        1 RES
    1535 _CH         30.0455    28.6584    33.4779 CH_sp2        1 RES
    1536 _CH         30.2963    30.0256    33.3105 CH_sp2        1 RES
    1537 _CH         23.3057    25.6109    27.0365 CH_sp2        1 RES
    1538 _CH         23.1880    25.1970    28.3687 CH_sp2        1 RES
    1539 _CH         23.0744    23.8348    28.6711 CH_sp2        1 RES
    1540 _CH         23.0784    22.8864    27.6412 CH_sp2        1 RES
    1541 _CH         23.1961    23.3003    26.3090 CH_sp2        1 RES
    1542 _CH         23.3097    24.6625    26.0066 CH_sp2        1 RES
    1543 _CH         24.8384    35.8820     5.3713 CH_sp2        1 RES
    1544 _CH         24.2874    34.5951     5.3486 CH_sp2        1 RES
    1545 _CH         22.8978    34.4292     5.3087 CH_sp2        1 RES
    1546 _CH         22.0592    35.5501     5.2915 CH_sp2        1 RES
    1547 _CH         22.6102    36.8370     5.3142 CH_sp2        1 RES
    1548 _CH         23.9998    37.0029     5.3541 CH_sp2        1 RES
    1549 _CH         29.5368    20.3997    39.2190 CH_sp2        1 RES
    1550 _CH         29.6717    19.2283    38.4641 CH_sp2        1 RES
    1551 _CH         29.3903    19.2431    37.0928 CH_sp2        1 RES
    1552 _CH         28.9741    20.4291    36.4763 CH_sp2        1 RES
    1553 _CH         28.8392    21.6004    37.2312 CH_sp2        1 RES
    1554 _CH         29.1206    21.5857    38.6025 CH_sp2        1 RES
    1555 _CH         24.9006    22.7910    10.6562 CH_sp2        1 RES
    1556 _CH         23.5143    22.6260    10.5524 CH_sp2        1 RES
    1557 _CH         22.9738    21.3491    10.3588 CH_sp2        1 RES
    1558 _CH         23.8198    20.2372    10.2691 CH_sp2        1 RES
    1559 _CH         25.2061    20.4022    10.3729 CH_sp2        1 RES
    1560 _CH         25.7466    21.6790    10.5665 CH_sp2        1 RES
    1561 _CH         36.5813    12.4208    12.9175 CH_sp2        1 RES
    1562 _CH         37.9386    12.5055    12.5851 CH_sp2        1 RES
    1563 _CH         38.6953    11.3379    12.4293 CH_sp2        1 RES
    1564 _CH         38.0947    10.0857    12.6059 CH_sp2        1 RES
    1565 _CH         36.7373    10.0010    12.9383 CH_sp2        1 RES
    1566 _CH         35.9807    11.1686    13.0941 CH_sp2        1 RES
    1567 _CH          7.6466    16.0595    12.7995 CH_sp2        1 RES
    1568 _CH          7.0937    15.4832    13.9493 CH_sp2        1 RES
    1569 _CH          7.5321    15.8887    15.2156 CH_sp2        1 RES
    1570 _CH          8.5235    16.8704    15.3320 CH_sp2        1 RES
    1571 _CH          9.0764    17.4466    14.1821 CH_sp2        1 RES
    1572 _CH          8.6379    17.0412    12.9158 CH_sp2        1 RES
    1573 _CH         22.1576    34.4465     7.7203 CH_sp2        1 RES
    1574 _CH         23.0871    34.1419     8.7219 CH_sp2        1 RES
    1575 _CH         23.5790    35.1560     9.5524 CH_sp2        1 RES
    1576 _CH         23.1414    36.4747     9.3813 CH_sp2        1 RES
    1577 _CH         22.2118    36.7794     8.3797 CH_sp2        1 RES
    1578 _CH         21.7199    35.7653     7.5492 CH_sp2        1 RES
    1579 _CH         40.1668     4.8198    16.7893 CH_sp2        1 RES
    1580 _CH         39.7574     6.0937    17.2011 CH_sp2        1 RES
    1581 _CH         39.3506     6.3047    18.5240 CH_sp2        1 RES
    1582 _CH         39.3532     5.2418    19.4351 CH_sp2        1 RES
    1583 _CH         39.7626     3.9678    19.0233 CH_sp2        1 RES
    1584 _CH         40.1693     3.7569    17.7005 CH_sp2        1 RES
    1585 _CH         16.2223    31.1119    18.8536 CH_sp2        1 RES
    1586 _CH         15.5536    32.2909    19.2041 CH_sp2        1 RES
    1587 _CH         16.2034    33.5254    19.0871 CH_sp2        1 RES
    1588 _CH         17.5219    33.5809    18.6196 CH_sp2        1 RES
    1589 _CH         18.1906    32.4019    18.2691 CH_sp2        1 RES
    1590 _CH         17.5408    31.1674    18.3861 CH_sp2        1 RES
    1591 _CH          2.0022    18.8811     9.9175 CH_sp2        1 RES
    1592 _CH          2.1805    18.6803    11.2915 CH_sp2        1 RES
    1593 _CH          3.1074    17.7347    11.7462 CH_sp2        1 RES
    1594 _CH          3.8559    16.9899    10.8270 CH_sp2        1 RES
    1595 _CH          3.6775    17.1907     9.4530 CH_sp2        1 RES
    1596 _CH          2.7507    18.1363     8.9982 CH_sp2        1 RES
    1597 _CH         23.4032     9.8920    37.9708 CH_sp2        1 RES
    1598 _CH         22.4456     8.8712    37.9409 CH_sp2        1 RES
    1599 _CH         21.8904     8.4677    36.7206 CH_sp2        1 RES
    1600 _CH         22.2929     9.0850    35.5303 CH_sp2        1 RES
    1601 _CH         23.2505    10.1058    35.5602 CH_sp2        1 RES
    1602 _CH         23.8056    10.5093    36.7804 CH_sp2        1 RES
    1603 _CH         16.1829    13.2352    39.1982 CH_sp2        1 RES
    1604 _CH         16.2810    13.7704    37.9083 CH_sp2        1 RES
    1605 _CH         17.4042    14.5238    37.5466 CH_sp2        1 RES
    1606 _CH         18.4293    14.7419    38.4748 CH_sp2        1 RES
    1607 _CH         18.3312    14.2067    39.7647 CH_sp2        1 RES
    1608 _CH         17.2080    13.4533    40.1265 CH_sp2        1 RES
    1609 _CH         18.2595    38.3918    38.4926 CH_sp2        1 RES
    1610 _CH         18.0820    37.3915    37.5293 CH_sp2        1 RES
    1611 _CH         18.2562    36.0465    37.8766 CH_sp2        1 RES
    1612 _CH         18.6078    35.7017    39.1871 CH_sp2        1 RES
    1613 _CH         18.7852    36.7020    40.1504 CH_sp2        1 RES
    1614 _CH         18.6111    38.0471    39.8031 CH_sp2        1 RES
    1615 _CH         12.1891    14.9959    14.3180 CH_sp2        1 RES
    1616 _CH         11.2567    15.9269    13.8450 CH_sp2        1 RES
    1617 _CH         11.6908    17.0571    13.1420 CH_sp2        1 RES
    1618 _CH         13.0573    17.2563    12.9121 CH_sp2        1 RES
    1619 _CH         13.9898    16.3253    13.3851 CH_sp2        1 RES
    1620 _CH         13.5557    15.1951    14.0880 CH_sp2        1 RES
    1621 _CH         25.0450     4.3698    27.3863 CH_sp2        1 RES
    1622 _CH         25.7694     5.5479    27.6035 CH_sp2        1 RES
    1623 _CH         25.3186     6.7571    27.0605 CH_sp2        1 RES
    1624 _CH         24.1434     6.7880    26.3004 CH_sp2        1 RES
    1625 _CH         23.4189     5.6099    26.0832 CH_sp2        1 RES
    1626 _CH         23.8697     4.4008    26.6261 CH_sp2        1 RES
    1627 _CH         17.5093    10.9018    29.4364 CH_sp2        1 RES
    1628 _CH         17.9917    10.5187    30.6936 CH_sp2        1 RES
    1629 _CH         18.9969     9.5493    30.7920 CH_sp2        1 RES
    1630 _CH         19.5197     8.9629    29.6332 CH_sp2        1 RES
    1631 _CH         19.0373     9.3460    28.3760 CH_sp2        1 RES
    1632 _CH         18.0321    10.3155    28.2776 CH_sp2        1 RES
    1633 _CH         24.1945     6.8688     5.4775 CH_sp2        1 RES
    1634 _CH         25.5151     7.2566     5.2213 CH_sp2        1 RES
    1635 _CH         25.8290     7.9313     4.0355 CH_sp2        1 RES
    1636 _CH         24.8223     8.2183     3.1058 CH_sp2        1 RES
    1637 _CH         23.5017     7.8306     3.3620 CH_sp2        1 RES
    1638 _CH         23.1878     7.1558     4.5478 CH_sp2        1 RES
    1639 _CH         17.1719    24.4553    15.0531 CH_sp2        1 RES
    1640 _CH         17.5432    23.1076    14.9763 CH_sp2        1 RES
    1641 _CH         16.6395    22.1597    14.4816 CH_sp2        1 RES
    1642 _CH         15.3645    22.5595    14.0636 CH_sp2        1 RES
    1643 _CH         14.9933    23.9072    14.1404 CH_sp2        1 RES
    1644 _CH         15.8970    24.8551    14.6352 CH_sp2        1 RES
    1645 _CH         36.2853    13.1599    15.0278 CH_sp2        1 RES
    1646 _CH         34.9153    13.3397    15.2530 CH_sp2        1 RES
    1647 _CH         34.3865    14.6319    15.3558 CH_sp2        1 RES
    1648 _CH         35.2277    15.7443    15.2334 CH_sp2        1 RES
    1649 _CH         36.5977    15.5645    15.0082 CH_sp2        1 RES
    1650 _CH         37.1265    14.2723    14.9054 CH_sp2        1 RES
    1651 _CH         38.6563    25.2468    37.6373 CH_sp2        1 RES
    1652 _CH         38.8992    23.8792    37.4627 CH_sp2        1 RES
    1653 _CH         37.8471    23.0186    37.1274 CH_sp2        1 RES
    1654 _CH         36.5521    23.5257    36.9666 CH_sp2        1 RES
    1655 _CH         36.3092    24.8934    37.1412 CH_sp2        1 RES
    1656 _CH         37.3613    25.7539    37.4765 CH_sp2        1 RES
    1657 _CH         22.6332    28.8193    33.7367 CH_sp2        1 RES
    1658 _CH         23.9041    29.3278    34.0304 CH_sp2        1 RES
    1659 _CH         24.1046    30.0831    35.1921 CH_sp2        1 RES
    1660 _CH         23.0342    30.3299    36.0600 CH_sp2        1 RES
    1661 _CH         21.7633    29.8214    35.7663 CH_sp2        1 RES
    1662 _CH         21.5628    29.0662    34.6047 CH_sp2        1 RES
    1663 _CH          2.0057    34.3209    14.7873 CH_sp2        1 RES
    1664 _CH          2.3854    35.1440    13.7203 CH_sp2        1 RES
    1665 _CH          3.2221    36.2433    13.9476 CH_sp2        1 RES
    1666 _CH          3.6789    36.5195    15.2418 CH_sp2        1 RES
    1667 _CH          3.2991    35.6965    16.3087 CH_sp2        1 RES
    1668 _CH          2.4625    34.5972    16.0815 CH_sp2        1 RES
    1669 _CH         36.1013    28.2833    18.8000 CH_sp2        1 RES
    1670 _CH         35.2324    27.1887    18.7163 CH_sp2        1 RES
    1671 _CH         33.8504    27.3967    18.6341 CH_sp2        1 RES
    1672 _CH         33.3372    28.6992    18.6356 CH_sp2        1 RES
    1673 _CH         34.2061    29.7938    18.7193 CH_sp2        1 RES
    1674 _CH         35.5881    29.5858    18.8015 CH_sp2        1 RES
    1675 _CH         24.9635     9.3053    15.3037 CH_sp2        1 RES
    1676 _CH         24.6981    10.3546    14.4157 CH_sp2        1 RES
    1677 _CH         24.0379    10.0993    13.2078 CH_sp2        1 RES
    1678 _CH         23.6431     8.7948    12.8879 CH_sp2        1 RES
    1679 _CH         23.9084     7.7455    13.7760 CH_sp2        1 RES
    1680 _CH         24.5686     8.0008    14.9839 CH_sp2        1 RES
    1681 _CH         29.9415    32.9507    28.4985 CH_sp2        1 RES
    1682 _CH         28.9855    33.9599    28.6649 CH_sp2        1 RES
    1683 _CH         29.3930    35.2764    28.9113 CH_sp2        1 RES
    1684 _CH         30.7565    35.5838    28.9913 CH_sp2        1 RES
    1685 _CH         31.7125    34.5746    28.8250 CH_sp2        1 RES
    1686 _CH         31.3050    33.2581    28.5786 CH_sp2        1 RES
    1687 _CH          9.8203    24.4444    12.7158 CH_sp2        1 RES
    1688 _CH          8.8805    25.2784    13.3332 CH_sp2        1 RES
    1689 _CH          7.5933    24.8004    13.6066 CH_sp2        1 RES
    1690 _CH          7.2460    23.4885    13.2627 CH_sp2        1 RES
    1691 _CH          8.1858    22.6546    12.6453 CH_sp2        1 RES
    1692 _CH          9.4730    23.1325    12.3718 CH_sp2        1 RES
    1693 _CH          9.0760    21.0264     5.7898 CH_sp2        1 RES
    1694 _CH         10.0461    21.5689     6.6411 CH_sp2        1 RES
    1695 _CH         11.3111    20.9756     6.7289 CH_sp2        1 RES
    1696 _CH         11.6060    19.8397     5.9655 CH_sp2        1 RES
    1697 _CH         10.6359    19.2972     5.1142 CH_sp2        1 RES
    1698 _CH          9.3709    19.8905     5.0264 CH_sp2        1 RES
    1699 _CH         17.8255    29.1708     3.0516 CH_sp2        1 RES
    1700 _CH         17.0132    28.0437     2.8784 CH_sp2        1 RES
    1701 _CH         15.6206    28.1664     2.9533 CH_sp2        1 RES
    1702 _CH         15.0403    29.4160     3.2014 CH_sp2        1 RES
    1703 _CH         15.8525    30.5431     3.3746 CH_sp2        1 RES
    1704 _CH         17.2451    30.4204     3.2997 CH_sp2        1 RES
    1705 _CH         20.5127    36.4461    30.9723 CH_sp2        1 RES
    1706 _CH         20.9591    37.5472    31.7128 CH_sp2        1 RES
    1707 _CH         20.4429    38.8221    31.4518 CH_sp2        1 RES
    1708 _CH         19.4802    38.9959    30.4503 CH_sp2        1 RES
    1709 _CH         19.0338    37.8949    29.7098 CH_sp2        1 RES
    1710 _CH         19.5500    36.6200    29.9707 CH_sp2        1 RES
    1711 _CH         20.0015    11.7088    30.7860 CH_sp2        1 RES
    1712 _CH         19.7602    13.0866    30.7261 CH_sp2        1 RES
    1713 _CH         20.8226    13.9751    30.5212 CH_sp2        1 RES
    1714 _CH         22.1263    13.4859    30.3763 CH_sp2        1 RES
    1715 _CH         22.3676    12.1081    30.4363 CH_sp2        1 RES
    1716 _CH         21.3053    11.2196    30.6411 CH_sp2        1 RES
    1717 _CH         37.8744    28.2639     9.5290 CH_sp2        1 RES
    1718 _CH         36.6354    27.6310     9.6850 CH_sp2        1 RES
    1719 _CH         35.6310    28.2372    10.4492 CH_sp2        1 RES
    1720 _CH         35.8658    29.4761    11.0574 CH_sp2        1 RES
    1721 _CH         37.1048    30.1089    10.9015 CH_sp2        1 RES
    1722 _CH         38.1091    29.5028    10.1373 CH_sp2        1 RES
    1723 _CH         18.4155     3.2982    10.4100 CH_sp2        1 RES
    1724 _CH         17.7249     4.5156    10.3770 CH_sp2        1 RES
    1725 _CH         16.3770     4.5458     9.9997 CH_sp2        1 RES
    1726 _CH         15.7197     3.3586     9.6555 CH_sp2        1 RES
    1727 _CH         16.4103     2.1412     9.6885 CH_sp2        1 RES
    1728 _CH         17.7581     2.1110    10.0658 CH_sp2        1 RES
    1729 _CH         37.0955    27.8732    16.8470 CH_sp2        1 RES
    1730 _CH         38.1268    28.8081    16.6972 CH_sp2        1 RES
    1731 _CH         37.8500    30.0785    16.1781 CH_sp2        1 RES
    1732 _CH         36.5420    30.4140    15.8088 CH_sp2        1 RES
    1733 _CH         35.5107    29.4791    15.9586 CH_sp2        1 RES
    1734 _CH         35.7875    28.2087    16.4777 CH_sp2        1 RES
    1735 _CH          3.3901    34.5828    35.5158 CH_sp2        1 RES
    1736 _CH          2.6583    33.4390    35.8565 CH_sp2        1 RES
    1737 _CH          2.4059    32.4564    34.8918 CH_sp2        1 RES
    1738 _CH          2.8853    32.6175    33.5863 CH_sp2        1 RES
    1739 _CH          3.6172    33.7613    33.2456 CH_sp2        1 RES
    1740 _CH          3.8696    34.7440    34.2103 CH_sp2        1 RES
    1741 _CH          5.2666     3.1926    36.8553 CH_sp2        1 RES
    1742 _CH          5.6825     4.2703    36.0643 CH_sp2        1 RES
    1743 _CH          6.9239     4.2267    35.4186 CH_sp2        1 RES
    1744 _CH          7.7494     3.1054    35.5639 CH_sp2        1 RES
    1745 _CH          7.3335     2.0277    36.3548 CH_sp2        1 RES
    1746 _CH          6.0921     2.0713    37.0005 CH_sp2        1 RES
    1747 _CH         22.3642    26.9929    25.2377 CH_sp2        1 RES
    1748 _CH         22.2123    28.3846    25.2255 CH_sp2        1 RES
    1749 _CH         20.9317    28.9493    25.2583 CH_sp2        1 RES
    1750 _CH         19.8029    28.1223    25.3033 CH_sp2        1 RES
    1751 _CH         19.9548    26.7306    25.3155 CH_sp2        1 RES
    1752 _CH         21.2354    26.1659    25.2827 CH_sp2        1 RES
    1753 _CH         31.9527    28.1937    11.1839 CH_sp2        1 RES
    1754 _CH         32.2365    27.0760    11.9777 CH_sp2        1 RES
    1755 _CH         33.2336    27.1486    12.9579 CH_sp2        1 RES
    1756 _CH         33.9467    28.3389    13.1441 CH_sp2        1 RES
    1757 _CH         33.6629    29.4565    12.3503 CH_sp2        1 RES
    1758 _CH         32.6659    29.3839    11.3701 CH_sp2        1 RES
    1759 _CH          5.4780    20.5569    26.2699 CH_sp2        1 RES
    1760 _CH          4.3789    20.3280    27.1064 CH_sp2        1 RES
    1761 _CH          3.8437    21.3781    27.8619 CH_sp2        1 RES
    1762 _CH          4.4075    22.6570    27.7810 CH_sp2        1 RES
    1763 _CH          5.5065    22.8858    26.9446 CH_sp2        1 RES
    1764 _CH          6.0418    21.8358    26.1890 CH_sp2        1 RES
    1765 _CH         11.2777    25.8013    15.0630 CH_sp2        1 RES
    1766 _CH          9.9336    26.1922    15.0864 CH_sp2        1 RES
    1767 _CH          9.6001    27.5519    15.0953 CH_sp2        1 RES
    1768 _CH         10.6107    28.5206    15.0808 CH_sp2        1 RES
    1769 _CH         11.9548    28.1297    15.0573 CH_sp2        1 RES
    1770 _CH         12.2883    26.7701    15.0484 CH_sp2        1 RES
    1771 _CH         30.9715     7.0306    13.3077 CH_sp2        1 RES
    1772 _CH         30.9386     7.1963    14.6975 CH_sp2        1 RES
    1773 _CH         31.3891     6.1695    15.5358 CH_sp2        1 RES
    1774 _CH         31.8726     4.9770    14.9843 CH_sp2        1 RES
    1775 _CH         31.9056     4.8113    13.5945 CH_sp2        1 RES
    1776 _CH         31.4550     5.8381    12.7562 CH_sp2        1 RES
    1777 _CH         22.8214    36.3314    39.1281 CH_sp2        1 RES
    1778 _CH         23.4157    37.3993    39.8111 CH_sp2        1 RES
    1779 _CH         22.6489    38.5145    40.1695 CH_sp2        1 RES
    1780 _CH         21.2879    38.5618    39.8450 CH_sp2        1 RES
    1781 _CH         20.6936    37.4939    39.1619 CH_sp2        1 RES
    1782 _CH         21.4603    36.3788    38.8035 CH_sp2        1 RES
    1783 _CH         24.5567    11.8130    16.6830 CH_sp2        1 RES
    1784 _CH         23.7289    12.0831    17.7793 CH_sp2        1 RES
    1785 _CH         24.0411    11.5570    19.0385 CH_sp2        1 RES
    1786 _CH         25.1810    10.7608    19.2015 CH_sp2        1 RES
    1787 _CH         26.0088    10.4907    18.1052 CH_sp2        1 RES
    1788 _CH         25.6966    11.0168    16.8459 CH_sp2        1 RES
    1789 _CH         13.8659     4.3419    15.6539 CH_sp2        1 RES
    1790 _CH         13.9919     2.9594    15.4723 CH_sp2        1 RES
    1791 _CH         15.2308     2.4094    15.1221 CH_sp2        1 RES
    1792 _CH         16.3437     3.2419    14.9535 CH_sp2        1 RES
    1793 _CH         16.2177     4.6243    15.1351 CH_sp2        1 RES
    1794 _CH         14.9788     5.1743    15.4853 CH_sp2        1 RES
    1795 _CH         32.2948    24.2736    20.2628 CH_sp2        1 RES
    1796 _CH         33.6552    24.5381    20.0642 CH_sp2        1 RES
    1797 _CH         34.5681    23.4805    19.9747 CH_sp2        1 RES
    1798 _CH         34.1207    22.1584    20.0838 CH_sp2        1 RES
    1799 _CH         32.7603    21.8939    20.2823 CH_sp2        1 RES
    1800 _CH         31.8474    22.9515    20.3718 CH_sp2        1 RES
    1801 _CH          4.1467     7.0393    32.9126 CH_sp2        1 RES
    1802 _CH          3.0788     6.4133    33.5666 CH_sp2        1 RES
    1803 _CH          2.0091     7.1768    34.0492 CH_sp2        1 RES
    1804 _CH          2.0073     8.5662    33.8779 CH_sp2        1 RES
    1805 _CH          3.0752     9.1922    33.2239 CH_sp2        1 RES
    1806 _CH          4.1449     8.4288    32.7412 CH_sp2        1 RES
    1807 _CH         37.4068    30.5480    26.7949 CH_sp2        1 RES
    1808 _CH         36.0759    30.3123    27.1600 CH_sp2        1 RES
    1809 _CH         35.0359    30.7190    26.3156 CH_sp2        1 RES
    1810 _CH         35.3267    31.3614    25.1061 CH_sp2        1 RES
    1811 _CH         36.6576    31.5971    24.7411 CH_sp2        1 RES
    1812 _CH         37.6976    31.1904    25.5855 CH_sp2        1 RES
    1813 _CH         40.1312    26.0263    14.6128 CH_sp2        1 RES
    1814 _CH         38.9580    26.5991    14.1074 CH_sp2        1 RES
    1815 _CH         37.7798    26.5634    14.8629 CH_sp2        1 RES
    1816 _CH         37.7749    25.9549    16.1237 CH_sp2        1 RES
    1817 _CH         38.9481    25.3820    16.6290 CH_sp2        1 RES
    1818 _CH         40.1263    25.4177    15.8736 CH_sp2        1 RES
    1819 _CH         38.8737    17.5508    37.7314 CH_sp2        1 RES
    1820 _CH         37.7049    18.2874    37.9579 CH_sp2        1 RES
    1821 _CH         37.7306    19.3954    38.8133 CH_sp2        1 RES
    1822 _CH         38.9250    19.7668    39.4421 CH_sp2        1 RES
    1823 _CH         40.0938    19.0302    39.2156 CH_sp2        1 RES
    1824 _CH         40.0681    17.9222    38.3602 CH_sp2        1 RES
    1825 _CH         12.0955    36.1720    23.2658 CH_sp2        1 RES
    1826 _CH         12.0531    37.5559    23.0585 CH_sp2        1 RES
    1827 _CH         11.1478    38.0986    22.1388 CH_sp2        1 RES
    1828 _CH         10.2847    37.2574    21.4265 CH_sp2        1 RES
    1829 _CH         10.3271    35.8734    21.6338 CH_sp2        1 RES
    1830 _CH         11.2324    35.3308    22.5535 CH_sp2        1 RES
    1831 _CH         27.7810     6.9348    25.8656 CH_sp2        1 RES
    1832 _CH         28.1626     5.7527    26.5114 CH_sp2        1 RES
    1833 _CH         29.0568     4.8728    25.8900 CH_sp2        1 RES
    1834 _CH         29.5695     5.1751    24.6228 CH_sp2        1 RES
    1835 _CH         29.1879     6.3572    23.9770 CH_sp2        1 RES
    1836 _CH         28.2937     7.2370    24.5984 CH_sp2        1 RES
    1837 _CH         13.1044    25.7908    27.3602 CH_sp2        1 RES
    1838 _CH         13.4838    26.7054    28.3499 CH_sp2        1 RES
    1839 _CH         12.7138    26.8393    29.5115 CH_sp2        1 RES
    1840 _CH         11.5645    26.0585    29.6834 CH_sp2        1 RES
    1841 _CH         11.1851    25.1439    28.6936 CH_sp2        1 RES
    1842 _CH         11.9551    25.0101    27.5320 CH_sp2        1 RES
    1843 _CH         34.3867    17.2814    38.0881 CH_sp2        1 RES
    1844 _CH         34.3167    16.3199    37.0729 CH_sp2        1 RES
    1845 _CH         33.3516    16.4348    36.0653 CH_sp2        1 RES
    1846 _CH         32.4565    17.5113    36.0728 CH_sp2        1 RES
    1847 _CH         32.5266    18.4729    37.0880 CH_sp2        1 RES
    1848 _CH         33.4917    18.3579    38.0956 CH_sp2        1 RES
    1849 _CH          3.3459    17.1934    14.4737 CH_sp2        1 RES
    1850 _CH          4.6502    17.5574    14.8291 CH_sp2        1 RES
    1851 _CH          4.8646    18.6375    15.6936 CH_sp2        1 RES
    1852 _CH          3.7747    19.3537    16.2026 CH_sp2        1 RES
    1853 _CH          2.4704    18.9897    15.8473 CH_sp2        1 RES
    1854 _CH          2.2560    17.9095    14.9828 CH_sp2        1 RES
    1855 _CH         33.1408    16.4963    25.6416 CH_sp2        1 RES
    1856 _CH         32.2422    17.2451    26.4110 CH_sp2        1 RES
    1857 _CH         31.4063    16.6035    27.3328 CH_sp2        1 RES
    1858 _CH         31.4689    15.2133    27.4851 CH_sp2        1 RES
    1859 _CH         32.3675    14.4645    26.7158 CH_sp2        1 RES
    1860 _CH         33.2034    15.1061    25.7940 CH_sp2        1 RES
    1861 _CH          7.4926    26.9103    16.6576 CH_sp2        1 RES
    1862 _CH          8.7121    26.5096    17.2164 CH_sp2        1 RES
    1863 _CH          9.2922    27.2628    18.2441 CH_sp2        1 RES
    1864 _CH          8.6529    28.4167    18.7129 CH_sp2        1 RES
    1865 _CH          7.4334    28.8174    18.1540 CH_sp2        1 RES
    1866 _CH          6.8533    28.0642    17.1264 CH_sp2        1 RES
    1867 _CH         36.0140    18.2464    21.1870 CH_sp2        1 RES
    1868 _CH         37.2948    18.7948    21.0495 CH_sp2        1 RES
    1869 _CH         38.3650    17.9833    20.6543 CH_sp2        1 RES
    1870 _CH         38.1545    16.6234    20.3967 CH_sp2        1 RES
    1871 _CH         36.8737    16.0750    20.5341 CH_sp2        1 RES
    1872 _CH         35.8035    16.8865    20.9293 CH_sp2        1 RES
    1873 _CH         19.8200     3.8654    36.4531 CH_sp2        1 RES
    1874 _CH         20.6459     4.9251    36.8469 CH_sp2        1 RES
    1875 _CH         20.4412     6.2055    36.3192 CH_sp2        1 RES
    1876 _CH         19.4107     6.4264    35.3977 CH_sp2        1 RES
    1877 _CH         18.5848     5.3668    35.0039 CH_sp2        1 RES
    1878 _CH         18.7895     4.0863    35.5316 CH_sp2        1 RES
    1879 _CH          4.3887    33.9062     4.8036 CH_sp2        1 RES
    1880 _CH          3.1702    34.1800     5.4364 CH_sp2        1 RES
    1881 _CH          2.0375    34.4847     4.6721 CH_sp2        1 RES
    1882 _CH          2.1232    34.5157     3.2751 CH_sp2        1 RES
    1883 _CH          3.3417    34.2420     2.6423 CH_sp2        1 RES
    1884 _CH          4.4744    33.9372     3.4065 CH_sp2        1 RES
    1885 _CH         35.4732    39.0080    28.6493 CH_sp2        1 RES
    1886 _CH         36.3925    39.9657    29.0938 CH_sp2        1 RES
    1887 _CH         37.1173    39.7467    30.2714 CH_sp2        1 RES
    1888 _CH         36.9227    38.5700    31.0046 CH_sp2        1 RES
    1889 _CH         36.0033    37.6123    30.5601 CH_sp2        1 RES
    1890 _CH         35.2785    37.8313    29.3825 CH_sp2        1 RES
    1891 _CH         23.5152    38.3109    37.1176 CH_sp2        1 RES
    1892 _CH         23.6310    37.3600    36.0967 CH_sp2        1 RES
    1893 _CH         24.5536    37.5532    35.0615 CH_sp2        1 RES
    1894 _CH         25.3603    38.6973    35.0473 CH_sp2        1 RES
    1895 _CH         25.2445    39.6482    36.0683 CH_sp2        1 RES
    1896 _CH         24.3219    39.4550    37.1034 CH_sp2        1 RES
    1897 _CH          9.0368     7.5809    26.8721 CH_sp2        1 RES
    1898 _CH          7.7812     8.0518    26.4699 CH_sp2        1 RES
    1899 _CH          7.0294     8.8621    27.3291 CH_sp2        1 RES
    1900 _CH          7.5331     9.2014    28.5904 CH_sp2        1 RES
    1901 _CH          8.7887     8.7305    28.9927 CH_sp2        1 RES
    1902 _CH          9.5405     7.9202    28.1335 CH_sp2        1 RES
    1903 _CH         20.8172     3.2128    23.2538 CH_sp2        1 RES
    1904 _CH         20.0894     2.0285    23.0874 CH_sp2        1 RES
    1905 _CH         18.6898     2.0623    23.0787 CH_sp2        1 RES
    1906 _CH         18.0181     3.2805    23.2365 CH_sp2        1 RES
    1907 _CH         18.7459     4.4648    23.4029 CH_sp2        1 RES
    1908 _CH         20.1455     4.4310    23.4116 CH_sp2        1 RES
    1909 _CH         32.5924    36.4843    24.5609 CH_sp2        1 RES
    1910 _CH         31.8908    37.6958    24.5487 CH_sp2        1 RES
    1911 _CH         31.3475    38.2020    25.7356 CH_sp2        1 RES
    1912 _CH         31.5058    37.4967    26.9346 CH_sp2        1 RES
    1913 _CH         32.2073    36.2852    26.9467 CH_sp2        1 RES
    1914 _CH         32.7506    35.7790    25.7598 CH_sp2        1 RES
    1915 _CH         28.8626    21.3155    14.4737 CH_sp2        1 RES
    1916 _CH         29.3007    20.0279    14.8059 CH_sp2        1 RES
    1917 _CH         28.3759    19.0543    15.2020 CH_sp2        1 RES
    1918 _CH         27.0130    19.3683    15.2660 CH_sp2        1 RES
    1919 _CH         26.5750    20.6559    14.9338 CH_sp2        1 RES
    1920 _CH         27.4998    21.6294    14.5377 CH_sp2        1 RES
    1921 _CH         11.2400    21.9903    24.3472 CH_sp2        1 RES
    1922 _CH         10.8048    22.5820    23.1554 CH_sp2        1 RES
    1923 _CH         10.1654    23.8271    23.1847 CH_sp2        1 RES
    1924 _CH          9.9613    24.4805    24.4059 CH_sp2        1 RES
    1925 _CH         10.3964    23.8888    25.5978 CH_sp2        1 RES
    1926 _CH         11.0358    22.6437    25.5684 CH_sp2        1 RES
    1927 _CH          6.3384    22.5031    34.4947 CH_sp2        1 RES
    1928 _CH          7.0204    23.6461    34.0605 CH_sp2        1 RES
    1929 _CH          8.4135    23.6205    33.9243 CH_sp2        1 RES
    1930 _CH          9.1246    22.4519    34.2222 CH_sp2        1 RES
    1931 _CH          8.4426    21.3090    34.6564 CH_sp2        1 RES
    1932 _CH          7.0495    21.3346    34.7926 CH_sp2        1 RES
    1933 _CH         17.8349    17.0479    38.2690 CH_sp2        1 RES
    1934 _CH         17.8998    16.9025    36.8781 CH_sp2        1 RES
    1935 _CH         19.1202    16.6002    36.2621 CH_sp2        1 RES
    1936 _CH         20.2755    16.4432    37.0370 CH_sp2        1 RES
    1937 _CH         20.2106    16.5886    38.4279 CH_sp2        1 RES
    1938 _CH         18.9903    16.8909    39.0439 CH_sp2        1 RES
    1939 _CH         32.5060    21.7923    15.0708 CH_sp2        1 RES
    1940 _CH         31.6442    22.3536    16.0206 CH_sp2        1 RES
    1941 _CH         30.9126    21.5240    16.8788 CH_sp2        1 RES
    1942 _CH         31.0429    20.1331    16.7872 CH_sp2        1 RES
    1943 _CH         31.9048    19.5718    15.8374 CH_sp2        1 RES
    1944 _CH         32.6363    20.4014    14.9792 CH_sp2        1 RES
    1945 _CH         20.3317    26.9953    29.9090 CH_sp2        1 RES
    1946 _CH         20.1442    25.6204    29.7232 CH_sp2        1 RES
    1947 _CH         20.9827    24.7057    30.3714 CH_sp2        1 RES
    1948 _CH         22.0087    25.1658    31.2054 CH_sp2        1 RES
    1949 _CH         22.1962    26.5407    31.3912 CH_sp2        1 RES
    1950 _CH         21.3577    27.4554    30.7430 CH_sp2        1 RES
    1951 _CH         33.5345    30.3260     6.3311 CH_sp2        1 RES
    1952 _CH         34.1453    31.2443     5.4688 CH_sp2        1 RES
    1953 _CH         35.5291    31.1964     5.2614 CH_sp2        1 RES
    1954 _CH         36.3020    30.2301     5.9164 CH_sp2        1 RES
    1955 _CH         35.6911    29.3118     6.7787 CH_sp2        1 RES
    1956 _CH         34.3074    29.3598     6.9861 CH_sp2        1 RES
    1957 _CH          9.9790    38.9868    30.4145 CH_sp2        1 RES
    1958 _CH          9.8148    37.9345    29.5059 CH_sp2        1 RES
    1959 _CH          8.5293    37.4882    29.1765 CH_sp2        1 RES
    1960 _CH          7.4081    38.0943    29.7557 CH_sp2        1 RES
    1961 _CH          7.5723    39.1467    30.6643 CH_sp2        1 RES
    1962 _CH          8.8577    39.5929    30.9938 CH_sp2        1 RES
    1963 _CH         34.5676    26.4119     7.9353 CH_sp2        1 RES
    1964 _CH         33.7311    25.2899     7.9725 CH_sp2        1 RES
    1965 _CH         34.2843    24.0072     8.0658 CH_sp2        1 RES
    1966 _CH         35.6739    23.8465     8.1217 CH_sp2        1 RES
    1967 _CH         36.5104    24.9685     8.0844 CH_sp2        1 RES
    1968 _CH         35.9572    26.2512     7.9912 CH_sp2        1 RES
    1969 _CH         12.2100    22.8807    36.8048 CH_sp2        1 RES
    1970 _CH         12.6917    21.6035    36.4938 CH_sp2        1 RES
    1971 _CH         12.7817    20.6268    37.4929 CH_sp2        1 RES
    1972 _CH         12.3900    20.9274    38.8029 CH_sp2        1 RES
    1973 _CH         11.9083    22.2046    39.1139 CH_sp2        1 RES
    1974 _CH         11.8183    23.1812    38.1149 CH_sp2        1 RES
    1975 _CH         11.3684    26.9082    32.8803 CH_sp2        1 RES
    1976 _CH         11.5805    28.0557    32.1068 CH_sp2        1 RES
    1977 _CH         12.7062    28.8559    32.3357 CH_sp2        1 RES
    1978 _CH         13.6198    28.5086    33.3381 CH_sp2        1 RES
    1979 _CH         13.4076    27.3612    34.1116 CH_sp2        1 RES
    1980 _CH         12.2819    26.5610    33.8827 CH_sp2        1 RES
    1981 _CH         21.8398     8.4126     8.9305 CH_sp2        1 RES
    1982 _CH         22.7350     8.4448    10.0065 CH_sp2        1 RES
    1983 _CH         22.6504     7.4792    11.0166 CH_sp2        1 RES
    1984 _CH         21.6705     6.4814    10.9509 CH_sp2        1 RES
    1985 _CH         20.7753     6.4492     9.8750 CH_sp2        1 RES
    1986 _CH         20.8600     7.4148     8.8648 CH_sp2        1 RES
    1987 _CH         28.4022    33.0197    30.6009 CH_sp2        1 RES
    1988 _CH         29.4568    33.9152    30.8152 CH_sp2        1 RES
    1989 _CH         30.6696    33.4551    31.3420 CH_sp2        1 RES
    1990 _CH         30.8278    32.0996    31.6543 CH_sp2        1 RES
    1991 _CH         29.7732    31.2042    31.4400 CH_sp2        1 RES
    1992 _CH         28.5604    31.6642    30.9132 CH_sp2        1 RES
    1993 _CH         16.7609     4.5671    17.4232 CH_sp2        1 RES
    1994 _CH         15.8630     5.6412    17.4149 CH_sp2        1 RES
    1995 _CH         16.3414     6.9541    17.5012 CH_sp2        1 RES
    1996 _CH         17.7176     7.1929    17.5957 CH_sp2        1 RES
    1997 _CH         18.6155     6.1187    17.6039 CH_sp2        1 RES
    1998 _CH         18.1371     4.8058    17.5177 CH_sp2        1 RES
    1999 _CH          9.8293    27.1168    27.6918 CH_sp2        1 RES
    2000 _CH          8.9291    27.2208    28.7590 CH_sp2        1 RES
    2001 _CH          8.0983    26.1411    29.0817 CH_sp2        1 RES
    2002 _CH          8.1677    24.9575    28.3372 CH_sp2        1 RES
    2003 _CH          9.0679    24.8535    27.2700 CH_sp2        1 RES
    2004 _CH          9.8986    25.9332    26.9473 CH_sp2        1 RES
    2005 _CH         33.0011    11.3671    32.6217 CH_sp2        1 RES
    2006 _CH         31.7833    12.0575    32.6381 CH_sp2        1 RES
    2007 _CH         30.5766    11.3499    32.5813 CH_sp2        1 RES
    2008 _CH         30.5877     9.9519    32.5080 CH_sp2        1 RES
    2009 _CH         31.8055     9.2615    32.4916 CH_sp2        1 RES
    2010 _CH         33.0122     9.9691    32.5484 CH_sp2        1 RES
    2011 _CH         18.6990    24.0820    16.9431 CH_sp2        1 RES
    2012 _CH         18.8500    25.2783    16.2318 CH_sp2        1 RES
    2013 _CH         17.9843    26.3514    16.4751 CH_sp2        1 RES
    2014 _CH         16.9676    26.2280    17.4296 CH_sp2        1 RES
    2015 _CH         16.8166    25.0317    18.1409 CH_sp2        1 RES
    2016 _CH         17.6823    23.9587    17.8977 CH_sp2        1 RES
    2017 _CH         31.6612    24.2319    37.2656 CH_sp2        1 RES
    2018 _CH         31.7590    22.8353    37.2538 CH_sp2        1 RES
    2019 _CH         31.2286    22.1055    36.1832 CH_sp2        1 RES
    2020 _CH         30.6004    22.7723    35.1245 CH_sp2        1 RES
    2021 _CH         30.5026    24.1688    35.1363 CH_sp2        1 RES
    2022 _CH         31.0330    24.8986    36.2069 CH_sp2        1 RES
    2023 _CH         23.0085    22.6231    15.1967 CH_sp2        1 RES
    2024 _CH         22.8874    21.9344    16.4096 CH_sp2        1 RES
    2025 _CH         21.7378    22.0927    17.1927 CH_sp2        1 RES
    2026 _CH         20.7092    22.9396    16.7629 CH_sp2        1 RES
    2027 _CH         20.8303    23.6284    15.5500 CH_sp2        1 RES
    2028 _CH         21.9800    23.4701    14.7670 CH_sp2        1 RES
    2029 _CH         23.3800    25.5294    10.7593 CH_sp2        1 RES
    2030 _CH         24.1738    24.8193    11.6680 CH_sp2        1 RES
    2031 _CH         25.3731    25.3731    12.1317 CH_sp2        1 RES
    2032 _CH         25.7787    26.6369    11.6866 CH_sp2        1 RES
    2033 _CH         24.9850    27.3470    10.7779 CH_sp2        1 RES
    2034 _CH         23.7857    26.7933    10.3143 CH_sp2        1 RES
    2035 _CH         23.3265    36.0008     2.7447 CH_sp2        1 RES
    2036 _CH         22.1531    36.7644     2.7471 CH_sp2        1 RES
    2037 _CH         22.2276    38.1623     2.7655 CH_sp2        1 RES
    2038 _CH         23.4756    38.7966     2.7815 CH_sp2        1 RES
    2039 _CH         24.6490    38.0330     2.7792 CH_sp2        1 RES
    2040 _CH         24.5745    36.6351     2.7608 CH_sp2        1 RES
    2041 _CH         10.4681     6.3932    19.2601 CH_sp2        1 RES
    2042 _CH          9.1548     6.8701    19.3483 CH_sp2        1 RES
    2043 _CH          8.5148     7.3734    18.2094 CH_sp2        1 RES
    2044 _CH          9.1881     7.3998    16.9823 CH_sp2        1 RES
    2045 _CH         10.5014     6.9229    16.8940 CH_sp2        1 RES
    2046 _CH         11.1414     6.4196    18.0329 CH_sp2        1 RES
    2047 _CH         34.0977    22.4366    37.4982 CH_sp2        1 RES
    2048 _CH         33.9542    23.3936    38.5099 CH_sp2        1 RES
    2049 _CH         34.6262    23.2313    39.7273 CH_sp2        1 RES
    2050 _CH         35.4416    22.1120    39.9330 CH_sp2        1 RES
    2051 _CH         35.5851    21.1550    38.9213 CH_sp2        1 RES
    2052 _CH         34.9131    21.3173    37.7038 CH_sp2        1 RES
    2053 _CH         20.9752    33.0386     9.9047 CH_sp2        1 RES
    2054 _CH         20.9652    31.8595     9.1500 CH_sp2        1 RES
    2055 _CH         22.0049    30.9320     9.2868 CH_sp2        1 RES
    2056 _CH         23.0546    31.1836    10.1784 CH_sp2        1 RES
    2057 _CH         23.0646    32.3627    10.9330 CH_sp2        1 RES
    2058 _CH         22.0249    33.2902    10.7962 CH_sp2        1 RES
    2059 _CH         22.7963    28.9807    15.6070 CH_sp2        1 RES
    2060 _CH         22.5680    28.9827    16.9883 CH_sp2        1 RES
    2061 _CH         22.8647    30.1225    17.7452 CH_sp2        1 RES
    2062 _CH         23.3898    31.2602    17.1208 CH_sp2        1 RES
    2063 _CH         23.6181    31.2582    15.7396 CH_sp2        1 RES
    2064 _CH         23.3214    30.1184    14.9827 CH_sp2        1 RES
    2065 _CH         16.8257    31.2647     8.2730 CH_sp2        1 RES
    2066 _CH         17.7719    30.2735     8.5601 CH_sp2        1 RES
    2067 _CH         17.3684    28.9404     8.7010 CH_sp2        1 RES
    2068 _CH         16.0187    28.5983     8.5548 CH_sp2        1 RES
    2069 _CH         15.0725    29.5895     8.2678 CH_sp2        1 RES
    2070 _CH         15.4760    30.9226     8.1269 CH_sp2        1 RES
    2071 _CH         24.6665    23.4464    38.6785 CH_sp2        1 RES
    2072 _CH         25.0185    24.5261    37.8597 CH_sp2        1 RES
    2073 _CH         26.3453    24.9708    37.8196 CH_sp2        1 RES
    2074 _CH         27.3202    24.3359    38.5984 CH_sp2        1 RES
    2075 _CH         26.9682    23.2563    39.4172 CH_sp2        1 RES
    2076 _CH         25.6413    22.8115    39.4573 CH_sp2        1 RES
    2077 _CH         19.2056    23.4817    25.1737 CH_sp2        1 RES
    2078 _CH         18.3514    24.5050    24.7458 CH_sp2        1 RES
    2079 _CH         17.0883    24.1922    24.2292 CH_sp2        1 RES
    2080 _CH         16.6795    22.8562    24.1406 CH_sp2        1 RES
    2081 _CH         17.5337    21.8329    24.5686 CH_sp2        1 RES
    2082 _CH         18.7968    22.1456    25.0851 CH_sp2        1 RES
    2083 _CH         36.2275    33.1709    28.4733 CH_sp2        1 RES
    2084 _CH         35.0034    32.9343    29.1100 CH_sp2        1 RES
    2085 _CH         34.0571    33.9610    29.2116 CH_sp2        1 RES
    2086 _CH         34.3350    35.2245    28.6763 CH_sp2        1 RES
    2087 _CH         35.5591    35.4612    28.0396 CH_sp2        1 RES
    2088 _CH         36.5054    34.4344    27.9380 CH_sp2        1 RES
    2089 _CH          3.0978    20.4799     5.0186 CH_sp2        1 RES
    2090 _CH          2.9789    21.1009     3.7695 CH_sp2        1 RES
    2091 _CH          3.8784    22.1081     3.4001 CH_sp2        1 RES
    2092 _CH          4.8967    22.4943     4.2797 CH_sp2        1 RES
    2093 _CH          5.0156    21.8733     5.5288 CH_sp2        1 RES
    2094 _CH          4.1161    20.8662     5.8983 CH_sp2        1 RES
    2095 _CH          8.8600    27.5508    31.4014 CH_sp2        1 RES
    2096 _CH          9.3355    26.2547    31.6341 CH_sp2        1 RES
    2097 _CH          9.3867    25.7518    32.9396 CH_sp2        1 RES
    2098 _CH          8.9625    26.5449    34.0125 CH_sp2        1 RES
    2099 _CH          8.4871    27.8410    33.7798 CH_sp2        1 RES
    2100 _CH          8.4358    28.3439    32.4742 CH_sp2        1 RES
    2101 _CH         20.1872    11.3592    35.8804 CH_sp2        1 RES
    2102 _CH         19.0791    12.1638    36.1716 CH_sp2        1 RES
    2103 _CH         19.1176    13.0401    37.2627 CH_sp2        1 RES
    2104 _CH         20.2643    13.1119    38.0627 CH_sp2        1 RES
    2105 _CH         21.3724    12.3073    37.7716 CH_sp2        1 RES
    2106 _CH         21.3338    11.4310    36.6804 CH_sp2        1 RES
    2107 _CH         35.5938     7.3678    17.2218 CH_sp2        1 RES
    2108 _CH         34.4411     6.5774    17.3029 CH_sp2        1 RES
    2109 _CH         34.5523     5.1852    17.3992 CH_sp2        1 RES
    2110 _CH         35.8163     4.5833    17.4144 CH_sp2        1 RES
    2111 _CH         36.9690     5.3737    17.3334 CH_sp2        1 RES
    2112 _CH         36.8577     6.7660    17.2371 CH_sp2        1 RES
    2113 _CH         20.5064    11.3902    40.1674 CH_sp2        1 RES
    2114 _CH         20.7035    10.2000    39.4571 CH_sp2        1 RES
    2115 _CH         19.6428     9.6244    38.7475 CH_sp2        1 RES
    2116 _CH         18.3849    10.2390    38.7483 CH_sp2        1 RES
    2117 _CH         18.1878    11.4292    39.4587 CH_sp2        1 RES
    2118 _CH         19.2485    12.0048    40.1682 CH_sp2        1 RES
    2119 _CH         25.5101    33.1484    25.5299 CH_sp2        1 RES
    2120 _CH         24.4938    34.1076    25.4457 CH_sp2        1 RES
    2121 _CH         23.2121    33.7343    25.0237 CH_sp2        1 RES
    2122 _CH         22.9468    32.4018    24.6860 CH_sp2        1 RES
    2123 _CH         23.9631    31.4426    24.7703 CH_sp2        1 RES
    2124 _CH         25.2447    31.8159    25.1922 CH_sp2        1 RES
    2125 _CH         20.6257    25.8942    37.7272 CH_sp2        1 RES
    2126 _CH         19.2721    25.5367    37.7118 CH_sp2        1 RES
    2127 _CH         18.2986    26.4650    38.0996 CH_sp2        1 RES
    2128 _CH         18.6785    27.7507    38.5029 CH_sp2        1 RES
    2129 _CH         20.0320    28.1082    38.5183 CH_sp2        1 RES
    2130 _CH         21.0056    27.1799    38.1304 CH_sp2        1 RES
    2131 _CH          5.5762    13.2528     4.3417 CH_sp2        1 RES
    2132 _CH          5.0563    12.6736     3.1779 CH_sp2        1 RES
    2133 _CH          5.8475    12.5852     2.0264 CH_sp2        1 RES
    2134 _CH          7.1586    13.0759     2.0385 CH_sp2        1 RES
    2135 _CH          7.6785    13.6551     3.2022 CH_sp2        1 RES
    2136 _CH          6.8873    13.7435     4.3538 CH_sp2        1 RES
    2137 _CH         27.8066    24.0537    33.6394 CH_sp2        1 RES
    2138 _CH         26.6918    24.8789    33.4492 CH_sp2        1 RES
    2139 _CH         26.8168    26.0673    32.7197 CH_sp2        1 RES
    2140 _CH         28.0566    26.4304    32.1803 CH_sp2        1 RES
    2141 _CH         29.1714    25.6052    32.3705 CH_sp2        1 RES
    2142 _CH         29.0464    24.4169    33.1000 CH_sp2        1 RES
    2143 _CH         28.0605    28.1167    16.9769 CH_sp2        1 RES
    2144 _CH         26.9532    28.4717    17.7566 CH_sp2        1 RES
    2145 _CH         25.8496    27.6140    17.8368 CH_sp2        1 RES
    2146 _CH         25.8532    26.4013    17.1372 CH_sp2        1 RES
    2147 _CH         26.9605    26.0463    16.3576 CH_sp2        1 RES
    2148 _CH         28.0641    26.9040    16.2774 CH_sp2        1 RES
    2149 _CH          7.5596    16.8952     8.3097 CH_sp2        1 RES
    2150 _CH          7.8305    18.2638     8.1934 CH_sp2        1 RES
    2151 _CH          7.3062    18.9923     7.1189 CH_sp2        1 RES
    2152 _CH          6.5111    18.3522     6.1608 CH_sp2        1 RES
    2153 _CH          6.2402    16.9836     6.2771 CH_sp2        1 RES
    2154 _CH          6.7644    16.2551     7.3516 CH_sp2        1 RES
    2155 _CH         32.0753    24.7211     3.7019 CH_sp2        1 RES
    2156 _CH         30.9436    25.5235     3.5137 CH_sp2        1 RES
    2157 _CH         31.0841    26.8293     3.0286 CH_sp2        1 RES
    2158 _CH         32.3563    27.3326     2.7317 CH_sp2        1 RES
    2159 _CH         33.4880    26.5302     2.9199 CH_sp2        1 RES
    2160 _CH         33.3475    25.2245     3.4050 CH_sp2        1 RES
    2161 _CH         20.3134    25.6489     2.3664 CH_sp2        1 RES
    2162 _CH         20.1684    24.2703     2.5627 CH_sp2        1 RES
    2163 _CH         18.8950    23.7202     2.7517 CH_sp2        1 RES
    2164 _CH         17.7665    24.5488     2.7445 CH_sp2        1 RES
    2165 _CH         17.9114    25.9273     2.5481 CH_sp2        1 RES
    2166 _CH         19.1849    26.4774     2.3591 CH_sp2        1 RES
    2167 _CH         35.7818    37.7465    11.1587 CH_sp2        1 RES
    2168 _CH         36.8386    37.6492    12.0717 CH_sp2        1 RES
    2169 _CH         37.4254    38.8101    12.5896 CH_sp2        1 RES
    2170 _CH         36.9553    40.0682    12.1943 CH_sp2        1 RES
    2171 _CH         35.8985    40.1655    11.2813 CH_sp2        1 RES
    2172 _CH         35.3117    39.0046    10.7634 CH_sp2        1 RES
    2173 _CH          7.1149    37.1667    11.6321 CH_sp2        1 RES
    2174 _CH          7.7222    38.2394    12.2959 CH_sp2        1 RES
    2175 _CH          8.1506    39.3585    11.5720 CH_sp2        1 RES
    2176 _CH          7.9718    39.4050    10.1843 CH_sp2        1 RES
    2177 _CH          7.3645    38.3324     9.5204 CH_sp2        1 RES
    2178 _CH          6.9361    37.2133    10.2443 CH_sp2        1 RES
    2179 _CH         34.6134    30.9643     9.3261 CH_sp2        1 RES
    2180 _CH         33.4341    30.4419     8.7819 CH_sp2        1 RES
    2181 _CH         32.2049    30.6943     9.4026 CH_sp2        1 RES
    2182 _CH         32.1550    31.4692    10.5675 CH_sp2        1 RES
    2183 _CH         33.3343    31.9916    11.1118 CH_sp2        1 RES
    2184 _CH         34.5636    31.7392    10.4911 CH_sp2        1 RES
    2185 _CH         13.3235    33.2311     2.9207 CH_sp2        1 RES
    2186 _CH         14.3238    33.3279     3.8955 CH_sp2        1 RES
    2187 _CH         14.4583    32.3246     4.8626 CH_sp2        1 RES
    2188 _CH         13.5925    31.2244     4.8549 CH_sp2        1 RES
    2189 _CH         12.5922    31.1276     3.8802 CH_sp2        1 RES
    2190 _CH         12.4577    32.1309     2.9131 CH_sp2        1 RES
    2191 _CH         16.2670     8.9405     9.0894 CH_sp2        1 RES
    2192 _CH         14.9920     9.1332     9.6345 CH_sp2        1 RES
    2193 _CH         13.9817     8.1923     9.4019 CH_sp2        1 RES
    2194 _CH         14.2464     7.0588     8.6241 CH_sp2        1 RES
    2195 _CH         15.5214     6.8660     8.0790 CH_sp2        1 RES
    2196 _CH         16.5317     7.8069     8.3116 CH_sp2        1 RES
    2197 _CH         26.7607    35.4521    33.3838 CH_sp2        1 RES
    2198 _CH         25.6802    34.6611    32.9753 CH_sp2        1 RES
    2199 _CH         25.8910    33.3301    32.5960 CH_sp2        1 RES
    2200 _CH         27.1823    32.7900    32.6252 CH_sp2        1 RES
    2201 _CH         28.2628    33.5810    33.0337 CH_sp2        1 RES
    2202 _CH         28.0520    34.9120    33.4130 CH_sp2        1 RES
    2203 _CH          6.6032    32.5767    21.8681 CH_sp2        1 RES
    2204 _CH          6.4466    31.1939    21.7149 CH_sp2        1 RES
    2205 _CH          7.1881    30.3130    22.5111 CH_sp2        1 RES
    2206 _CH          8.0863    30.8148    23.4606 CH_sp2        1 RES
    2207 _CH          8.2429    32.1976    23.6138 CH_sp2        1 RES
    2208 _CH          7.5013    33.0785    22.8175 CH_sp2        1 RES
    2209 _CH         28.4079     5.6504    34.4765 CH_sp2        1 RES
    2210 _CH         27.1183     5.8523    33.9702 CH_sp2        1 RES
    2211 _CH         26.1732     6.5588    34.7236 CH_sp2        1 RES
    2212 _CH         26.5177     7.0634    35.9833 CH_sp2        1 RES
    2213 _CH         27.8073     6.8615    36.4895 CH_sp2        1 RES
    2214 _CH         28.7524     6.1550    35.7361 CH_sp2        1 RES
    2215 _CH         17.3128     7.5229    26.3227 CH_sp2        1 RES
    2216 _CH         18.4337     8.3417    26.5042 CH_sp2        1 RES
    2217 _CH         19.5746     8.1515    25.7155 CH_sp2        1 RES
    2218 _CH         19.5946     7.1424    24.7452 CH_sp2        1 RES
    2219 _CH         18.4736     6.3236    24.5637 CH_sp2        1 RES
    2220 _CH         17.3327     6.5138    25.3524 CH_sp2        1 RES
    2221 _CH          6.4467    32.6051    27.9136 CH_sp2        1 RES
    2222 _CH          7.6553    33.1451    27.4580 CH_sp2        1 RES
    2223 _CH          8.7141    32.2974    27.1110 CH_sp2        1 RES
    2224 _CH          8.5642    30.9097    27.2196 CH_sp2        1 RES
    2225 _CH          7.3556    30.3696    27.6752 CH_sp2        1 RES
    2226 _CH          6.2968    31.2173    28.0222 CH_sp2        1 RES
    2227 _CH          7.2793    22.9143    38.1456 CH_sp2        1 RES
    2228 _CH          7.2825    24.0656    37.3490 CH_sp2        1 RES
    2229 _CH          8.4440    24.4382    36.6619 CH_sp2        1 RES
    2230 _CH          9.6023    23.6596    36.7714 CH_sp2        1 RES
    2231 _CH          9.5991    22.5083    37.5680 CH_sp2        1 RES
    2232 _CH          8.4376    22.1357    38.2551 CH_sp2        1 RES
    2233 _CH         22.5452    13.8154    33.2344 CH_sp2        1 RES
    2234 _CH         23.6136    14.7178    33.2991 CH_sp2        1 RES
    2235 _CH         23.3781    16.0918    33.1702 CH_sp2        1 RES
    2236 _CH         22.0743    16.5634    32.9767 CH_sp2        1 RES
    2237 _CH         21.0058    15.6611    32.9121 CH_sp2        1 RES
    2238 _CH         21.2413    14.2870    33.0410 CH_sp2        1 RES
    2239 _CH         35.5304    19.0931    15.3703 CH_sp2        1 RES
    2240 _CH         36.9240    19.1130    15.5027 CH_sp2        1 RES
    2241 _CH         37.5278    18.5509    16.6338 CH_sp2        1 RES
    2242 _CH         36.7381    17.9688    17.6325 CH_sp2        1 RES
    2243 _CH         35.3445    17.9488    17.5001 CH_sp2        1 RES
    2244 _CH         34.7406    18.5110    16.3691 CH_sp2        1 RES
    2245 _CH         25.6092    25.7630    23.5776 CH_sp2        1 RES
    2246 _CH         26.9479    26.1613    23.6736 CH_sp2        1 RES
    2247 _CH         27.7783    26.1019    22.5481 CH_sp2        1 RES
    2248 _CH         27.2701    25.6441    21.3266 CH_sp2        1 RES
    2249 _CH         25.9314    25.2457    21.2306 CH_sp2        1 RES
    2250 _CH         25.1010    25.3052    22.3561 CH_sp2        1 RES
    2251 _CH          7.6940    16.0805    18.0597 CH_sp2        1 RES
    2252 _CH          6.6105    16.9666    18.0304 CH_sp2        1 RES
    2253 _CH          5.3044    16.4723    17.9323 CH_sp2        1 RES
    2254 _CH          5.0817    15.0918    17.8634 CH_sp2        1 RES
    2255 _CH          6.1652    14.2057    17.8927 CH_sp2        1 RES
    2256 _CH          7.4713    14.7000    17.9908 CH_sp2        1 RES
    2257 _CH         11.0026     5.9212    27.8872 CH_sp2        1 RES
    2258 _CH         10.9897     4.5478    28.1581 CH_sp2        1 RES
    2259 _CH         11.1765     3.6277    27.1196 CH_sp2        1 RES
    2260 _CH         11.3761     4.0810    25.8102 CH_sp2        1 RES
    2261 _CH         11.3890     5.4545    25.5393 CH_sp2        1 RES
    2262 _CH         11.2022     6.3746    26.5778 CH_sp2        1 RES
    2263 _CH          3.2875    26.6643     5.0353 CH_sp2        1 RES
    2264 _CH          4.6017    27.1446     5.0837 CH_sp2        1 RES
    2265 _CH          5.5992    26.3919     5.7150 CH_sp2        1 RES
    2266 _CH          5.2826    25.1591     6.2979 CH_sp2        1 RES
    2267 _CH          3.9684    24.6789     6.2496 CH_sp2        1 RES
    2268 _CH          2.9709    25.4315     5.6183 CH_sp2        1 RES
    2269 _CH         35.9691    37.3080    37.1519 CH_sp2        1 RES
    2270 _CH         35.1388    36.2180    36.8647 CH_sp2        1 RES
    2271 _CH         35.6305    35.1414    36.1169 CH_sp2        1 RES
    2272 _CH         36.9525    35.1548    35.6564 CH_sp2        1 RES
    2273 _CH         37.7828    36.2448    35.9436 CH_sp2        1 RES
    2274 _CH         37.2912    37.3214    36.6914 CH_sp2        1 RES
    2275 _CH         38.4495    14.6598    25.3315 CH_sp2        1 RES
    2276 _CH         37.8795    13.3811    25.3403 CH_sp2        1 RES
    2277 _CH         36.4872    13.2353    25.3468 CH_sp2        1 RES
    2278 _CH         35.6647    14.3683    25.3444 CH_sp2        1 RES
    2279 _CH         36.2346    15.6470    25.3356 CH_sp2        1 RES
    2280 _CH         37.6270    15.7928    25.3291 CH_sp2        1 RES
    2281 _CH          7.6504    37.8485    37.9652 CH_sp2        1 RES
    2282 _CH          7.0157    37.4630    36.7784 CH_sp2        1 RES
    2283 _CH          6.7866    38.4057    35.7690 CH_sp2        1 RES
    2284 _CH          7.1922    39.7338    35.9464 CH_sp2        1 RES
    2285 _CH          7.8269    40.1193    37.1332 CH_sp2        1 RES
    2286 _CH          8.0560    39.1767    38.1426 CH_sp2        1 RES
    2287 _CH         38.5943    37.6739    18.5582 CH_sp2        1 RES
    2288 _CH         37.2084    37.4838    18.6136 CH_sp2        1 RES
    2289 _CH         36.3479    38.5869    18.5597 CH_sp2        1 RES
    2290 _CH         36.8734    39.8799    18.4503 CH_sp2        1 RES
    2291 _CH         38.2593    40.0699    18.3949 CH_sp2        1 RES
    2292 _CH         39.1198    38.9669    18.4489 CH_sp2        1 RES
    2293 _CH         13.8748    10.7479    16.6907 CH_sp2        1 RES
    2294 _CH         13.6030     9.3879    16.8818 CH_sp2        1 RES
    2295 _CH         12.3851     8.9899    17.4459 CH_sp2        1 RES
    2296 _CH         11.4389     9.9520    17.8189 CH_sp2        1 RES
    2297 _CH         11.7107    11.3120    17.6279 CH_sp2        1 RES
    2298 _CH         12.9286    11.7099    17.0637 CH_sp2        1 RES
    2299 _CH         10.6800     2.0094    21.0155 CH_sp2        1 RES
    2300 _CH         10.3932     1.9948    22.3857 CH_sp2        1 RES
    2301 _CH         11.4363     2.0101    23.3194 CH_sp2        1 RES
    2302 _CH         12.7662     2.0399    22.8828 CH_sp2        1 RES
    2303 _CH         13.0529     2.0545    21.5125 CH_sp2        1 RES
    2304 _CH         12.0098     2.0392    20.5789 CH_sp2        1 RES
    2305 _CH         25.2957    11.8346     9.7164 CH_sp2        1 RES
    2306 _CH         26.6229    12.2086     9.4736 CH_sp2        1 RES
    2307 _CH         27.6651    11.3212     9.7674 CH_sp2        1 RES
    2308 _CH         27.3802    10.0598    10.3040 CH_sp2        1 RES
    2309 _CH         26.0530     9.6859    10.5467 CH_sp2        1 RES
    2310 _CH         25.0108    10.5733    10.2529 CH_sp2        1 RES
    2311 _CH         19.7985    18.6749    18.1822 CH_sp2        1 RES
    2312 _CH         20.5245    17.6838    18.8535 CH_sp2        1 RES
    2313 _CH         21.8311    17.9437    19.2839 CH_sp2        1 RES
    2314 _CH         22.4117    19.1946    19.0430 CH_sp2        1 RES
    2315 _CH         21.6857    20.1857    18.3717 CH_sp2        1 RES
    2316 _CH         20.3791    19.9259    17.9413 CH_sp2        1 RES
    2317 _CH         18.4088    29.2255    19.6261 CH_sp2        1 RES
    2318 _CH         19.8015    29.0825    19.6202 CH_sp2        1 RES
    2319 _CH         20.3740    27.8050    19.6377 CH_sp2        1 RES
    2320 _CH         19.5539    26.6706    19.6610 CH_sp2        1 RES
    2321 _CH         18.1613    26.8137    19.6669 CH_sp2        1 RES
    2322 _CH         17.5887    28.0911    19.6495 CH_sp2        1 RES
    2323 _CH         24.7028     2.0227    33.2443 CH_sp2        1 RES
    2324 _CH         25.1100     2.9055    32.2369 CH_sp2        1 RES
    2325 _CH         24.1838     3.7798    31.6559 CH_sp2        1 RES
    2326 _CH         22.8503     3.7714    32.0822 CH_sp2        1 RES
    2327 _CH         22.4431     2.8886    33.0896 CH_sp2        1 RES
    2328 _CH         23.3693     2.0142    33.6707 CH_sp2        1 RES
    2329 _CH         15.1529    24.2775    39.4859 CH_sp2        1 RES
    2330 _CH         16.3775    24.4087    40.1517 CH_sp2        1 RES
    2331 _CH         17.5774    24.2624    39.4455 CH_sp2        1 RES
    2332 _CH         17.5528    23.9849    38.0735 CH_sp2        1 RES
    2333 _CH         16.3283    23.8537    37.4077 CH_sp2        1 RES
    2334 _CH         15.1283    24.0001    38.1138 CH_sp2        1 RES
    2335 _CH         16.2073     5.6922    28.4626 CH_sp2        1 RES
    2336 _CH         16.6259     6.5919    29.4502 CH_sp2        1 RES
    2337 _CH         17.9640     7.0002    29.5034 CH_sp2        1 RES
    2338 _CH         18.8835     6.5088    28.5691 CH_sp2        1 RES
    2339 _CH         18.4649     5.6091    27.5815 CH_sp2        1 RES
    2340 _CH         17.1268     5.2008    27.5282 CH_sp2        1 RES
    2341 _CH         31.2910    29.2972    28.3828 CH_sp2        1 RES
    2342 _CH         30.6246    29.0906    29.5966 CH_sp2        1 RES
    2343 _CH         30.6587    27.8318    30.2085 CH_sp2        1 RES
    2344 _CH         31.3591    26.7796    29.6065 CH_sp2        1 RES
    2345 _CH         32.0255    26.9862    28.3927 CH_sp2        1 RES
    2346 _CH         31.9914    28.2450    27.7809 CH_sp2        1 RES
    2347 _CH          6.0332    35.4903    33.4211 CH_sp2        1 RES
    2348 _CH          5.4759    34.6839    32.4215 CH_sp2        1 RES
    2349 _CH          6.2447    33.6782    31.8237 CH_sp2        1 RES
    2350 _CH          7.5710    33.4788    32.2255 CH_sp2        1 RES
    2351 _CH          8.1283    34.2852    33.2250 CH_sp2        1 RES
    2352 _CH          7.3595    35.2909    33.8228 CH_sp2        1 RES
    2353 _CH         36.4191    15.2111    39.3498 CH_sp2        1 RES
    2354 _CH         35.0655    15.1456    39.7013 CH_sp2        1 RES
    2355 _CH         34.3914    16.3029    40.1089 CH_sp2        1 RES
    2356 _CH         35.0708    17.5257    40.1649 CH_sp2        1 RES
    2357 _CH         36.4243    17.5912    39.8134 CH_sp2        1 RES
    2358 _CH         37.0985    16.4339    39.4058 CH_sp2        1 RES
    2359 _CH         34.2100    37.9345    17.8138 CH_sp2        1 RES
    2360 _CH         34.1418    39.1543    18.4974 CH_sp2        1 RES
    2361 _CH         33.2615    39.3043    19.5756 CH_sp2        1 RES
    2362 _CH         32.4494    38.2344    19.9703 CH_sp2        1 RES
    2363 _CH         32.5176    37.0145    19.2867 CH_sp2        1 RES
    2364 _CH         33.3978    36.8645    18.2085 CH_sp2        1 RES
    2365 _CH          8.0098    34.2821    36.3287 CH_sp2        1 RES
    2366 _CH          6.7669    33.8467    36.8038 CH_sp2        1 RES
    2367 _CH          6.1830    32.6884    36.2772 CH_sp2        1 RES
    2368 _CH          6.8419    31.9654    35.2757 CH_sp2        1 RES
    2369 _CH          8.0848    32.4008    34.8007 CH_sp2        1 RES
    2370 _CH          8.6688    33.5591    35.3272 CH_sp2        1 RES
    2371 _CH          5.4427    16.9200    12.8020 CH_sp2        1 RES
    2372 _CH          6.1044    17.7800    11.9173 CH_sp2        1 RES
    2373 _CH          6.4119    17.3495    10.6211 CH_sp2        1 RES
    2374 _CH          6.0577    16.0591    10.2096 CH_sp2        1 RES
    2375 _CH          5.3960    15.1991    11.0942 CH_sp2        1 RES
    2376 _CH          5.0885    15.6296    12.3904 CH_sp2        1 RES
    2377 _CH         33.1379    34.1269    22.2238 CH_sp2        1 RES
    2378 _CH         32.1659    33.1204    22.2704 CH_sp2        1 RES
    2379 _CH         30.8078    33.4594    22.2942 CH_sp2        1 RES
    2380 _CH         30.4216    34.8049    22.2714 CH_sp2        1 RES
    2381 _CH         31.3936    35.8114    22.2249 CH_sp2        1 RES
    2382 _CH         32.7518    35.4724    22.2011 CH_sp2        1 RES
    2383 _CH         20.1954    16.5202    16.4334 CH_sp2        1 RES
    2384 _CH         19.1606    17.4080    16.1157 CH_sp2        1 RES
    2385 _CH         19.4572    18.7257    15.7474 CH_sp2        1 RES
    2386 _CH         20.7886    19.1557    15.6969 CH_sp2        1 RES
    2387 _CH         21.8234    18.2679    16.0147 CH_sp2        1 RES
    2388 _CH         21.5268    16.9501    16.3829 CH_sp2        1 RES
    2389 _CH          4.6284    32.8563    26.3063 CH_sp2        1 RES
    2390 _CH          5.5788    33.6339    25.6339 CH_sp2        1 RES
    2391 _CH          5.8889    33.3589    24.2967 CH_sp2        1 RES
    2392 _CH          5.2485    32.3064    23.6318 CH_sp2        1 RES
    2393 _CH          4.2981    31.5288    24.3041 CH_sp2        1 RES
    2394 _CH          3.9881    31.8038    25.6414 CH_sp2        1 RES
    2395 _CH         10.6761    12.4281    13.4520 CH_sp2        1 RES
    2396 _CH         10.8107    13.6684    12.8168 CH_sp2        1 RES
    2397 _CH          9.7731    14.1611    12.0163 CH_sp2        1 RES
    2398 _CH          8.6011    13.4135    11.8510 CH_sp2        1 RES
    2399 _CH          8.4666    12.1731    12.4861 CH_sp2        1 RES
    2400 _CH          9.5041    11.6804    13.2866 CH_sp2        1 RES
@<TRIPOS>BOND
       1        2        1 1
       2        3        2 1
       3        4        3 1
       4        5        4 1
       5        6        1 1
       6        6        5 1
       7        8        7 1
       8        9        8 1
       9       10        9 1
      10       11       10 1
      11       12        7 1
      12       12       11 1
      13       14       13 1
      14       15       14 1
      15       16       15 1
      16       17       16 1
      17       18       13 1
      18       18       17 1
      19       20       19 1
      20       21       20 1
      21       22       21 1
      22       23       22 1
      23       24       19 1
      24       24       23 1
      25       26       25 1
      26       27       26 1
      27       28       27 1
      28       29       28 1
      29       30       25 1
      30       30       29 1
      31       32       31 1
      32       33       32 1
      33       34       33 1
      34       35       34 1
      35       36       31 1
      36       36       35 1
      37       38       37 1
      38       39       38 1
      39       40       39 1
      40       41       40 1
      41       42       37 1
      42       42       41 1
      43       44       43 1
      44       45       44 1
      45       46       45 1
      46       47       46 1
      47       48       43 1
      48       48       47 1
      49       50       49 1
      50       51       50 1
      51       52       51 1
      52       53       52 1
      53       54       49 1
      54       54       53 1
      55       56       55 1
      56       57       56 1
      57       58       57 1
      58       59       58 1
      59       60       55 1
      60       60       59 1
      61       62       61 1
      62       63       62 1
      63       64       63 1
      64       65       64 1
      65       66       61 1
      66       66       65 1
      67       68       67 1
      68       69       68 1
      69       70       69 1
      70       71       70 1
      71       72       67 1
      72       72       71 1
      73       74       73 1
      74       75       74 1
      75       76       75 1
      76       77       76 1
      77       78       73 1
      78       78       77 1
      79       80       79 1
      80       81       80 1
      81       82       81 1
      82       83       82 1
      83       84       79 1
      84       84       83 1
      85       86       85 1
      86       87       86 1
      87       88       87 1
      88       89       88 1
      89       90       85 1
      90       90       89 1
      91       92       91 1
      92       93       92 1
      93       94       93 1
      94       95       94 1
      95       96       91 1
      96       96       95 1
      97       98       97 1
      98       99       98 1
      99      100       99 1
     100      101      100 1
     101      102       97 1
     102      102      101 1
     103      104      103 1
     104      105      104 1
     105      106      105 1
     106      107      106 1
     107      108      103 1
     108      108      107 1
     109      110      109 1
     110      111      110 1
     111      112      111 1
     112      113      112 1
     113      114      109 1
     114      114      113 1
     115      116      115 1
     116      117      116 1
     117      118      117 1
     118      119      118 1
     119      120      115 1
     120      120      119 1
     121      122      121 1
     122      123      122 1
     123      124      123 1
     124      125      124 1
     125      126      121 1
     126      126      125 1
     127      128      127 1
     128      129      128 1
     129      130      129 1
     130      131      130 1
     131      132      127 1
     132      132      131 1
     133      134      133 1
     134      135      134 1
     135      136      135 1
     136      137      136 1
     137      138      133 1
     138      138      137 1
     139      140      139 1
     140      141      140 1
     141      142      141 1
     142      143      142 1
     143      144      139 1
     144      144      143 1
     145      146      145 1
     146      147      146 1
     147      148      147 1
     148      149      148 1
     149      150      145 1
     150      150      149 1
     151      152      151 1
     152      153      152 1
     153      154      153 1
     154      155      154 1
     155      156      151 1
     156      156      155 1
     157      158      157 1
     158      159      158 1
     159      160      159 1
     160      161      160 1
     161      162      157 1
     162      162      161 1
     163      164      163 1
     164      165      164 1
     165      166      165 1
     166      167      166 1
     167      168      163 1
     168      168      167 1
     169      170      169 1
     170      171      170 1
     171      172      171 1
     172      173      172 1
     173      174      169 1
     174      174      173 1
     175      176      175 1
     176      177      176 1
     177      178      177 1
     178      179      178 1
     179      180      175 1
     180      180      179 1
     181      182      181 1
     182      183      182 1
     183      184      183 1
     184      185      184 1
     185      186      181 1
     186      186      185 1
     187      188      187 1
     188      189      188 1
     189      190      189 1
     190      191      190 1
     191      192      187 1
     192      192      191 1
     193      194      193 1
     194      195      194 1
     195      196      195 1
     196      197      196 1
     197      198      193 1
     198      198      197 1
     199      200      199 1
     200      201      200 1
     201      202      201 1
     202      203      202 1
     203      204      199 1
     204      204      203 1
     205      206      205 1
     206      207      206 1
     207      208      207 1
     208      209      208 1
     209      210      205 1
     210      210      209 1
     211      212      211 1
     212      213      212 1
     213      214      213 1
     214      215      214 1
     215      216      211 1
     216      216      215 1
     217      218      217 1
     218      219      218 1
     219      220      219 1
     220      221      220 1
     221      222      217 1
     222      222      221 1
     223      224      223 1
     224      225      224 1
     225      226      225 1
     226      227      226 1
     227      228      223 1
     228      228      227 1
     229      230      229 1
     230      231      230 1
     231      232      231 1
     232      233      232 1
     233      234      229 1
     234      234      233 1
     235      236      235 1
     236      237      236 1
     237      238      237 1
     238      239      238 1
     239      240      235 1
     240      240      239 1
     241      242      241 1
     242      243      242 1
     243      244      243 1
     244      245      244 1
     245      246      241 1
     246      246      245 1
     247      248      247 1
     248      249      248 1
     249      250      249 1
     250      251      250 1
     251      252      247 1
     252      252      251 1
     253      254      253 1
     254      255      254 1
     255      256      255 1
     256      257      256 1
     257      258      253 1
     258      258      257 1
     259      260      259 1
     260      261      260 1
     261      262      261 1
     262      263      262 1
     263      264      259 1
     264      264      263 1
     265      266      265 1
     266      267      266 1
     267      268      267 1
     268      269      268 1
     269      270      265 1
     270      270      269 1
     271      272      271 1
     272      273      272 1
     273      274      273 1
     274      275      274 1
     275      276      271 1
     276      276      275 1
     277      278      277 1
     278      279      278 1
     279      280      279 1
     280      281      280 1
     281      282      277 1
     282      282      281 1
     283      284      283 1
     284      285      284 1
     285      286      285 1
     286      287      286 1
     287      288      283 1
     288      288      287 1
     289      290      289 1
     290      291      290 1
     291      292      291 1
     292      293      292 1
     293      294      289 1
     294      294      293 1
     295      296      295 1
     296      297      296 1
     297      298      297 1
     298      299      298 1
     299      300      295 1
     300      300      299 1
     301      302      301 1
     302      303      302 1
     303      304      303 1
     304      305      304 1
     305      306      301 1
     306      306      305 1
     307      308      307 1
     308      309      308 1
     309      310      309 1
     310      311      310 1
     311      312      307 1
     312      312      311 1
     313      314      313 1
     314      315      314 1
     315      316      315 1
     316      317      316 1
     317      318      313 1
     318      318      317 1
     319      320      319 1
     320      321      320 1
     321      322      321 1
     322      323      322 1
     323      324      319 1
     324      324      323 1
     325      326      325 1
     326      327      326 1
     327      328      327 1
     328      329      328 1
     329      330      325 1
     330      330      329 1
     331      332      331 1
     332      333      332 1
     333      334      333 1
     334      335      334 1
     335      336      331 1
     336      336      335 1
     337      338      337 1
     338      339      338 1
     339      340      339 1
     340      341      340 1
     341      342      337 1
     342      342      341 1
     343      344      343 1
     344      345      344 1
     345      346      345 1
     346      347      346 1
     347      348      343 1
     348      348      347 1
     349      350      349 1
     350      351      350 1
     351      352      351 1
     352      353      352 1
     353      354      349 1
     354      354      353 1
     355      356      355 1
     356      357      356 1
     357      358      357 1
     358      359      358 1
     359      360      355 1
     360      360      359 1
     361      362      361 1
     362      363      362 1
     363      364      363 1
     364      365      364 1
     365      366      361 1
     366      366      365 1
     367      368      367 1
     368      369      368 1
     369      370      369 1
     370      371      370 1
     371      372      367 1
     372      372      371 1
     373      374      373 1
     374      375      374 1
     375      376      375 1
     376      377      376 1
     377      378      373 1
     378      378      377 1
     379      380      379 1
     380      381      380 1
     381      382      381 1
     382      383      382 1
     383      384      379 1
     384      384      383 1
     385      386      385 1
     386      387      386 1
     387      388      387 1
     388      389      388 1
     389      390      385 1
     390      390      389 1
     391      392      391 1
     392      393      392 1
     393      394      393 1
     394      395      394 1
     395      396      391 1
     396      396      395 1
     397      398      397 1
     398      399      398 1
     399      400      399 1
     400      401      400 1
     401      402      397 1
     402      402      401 1
     403      404      403 1
     404      405      404 1
     405      406      405 1
     406      407      406 1
     407      408      403 1
     408      408      407 1
     409      410      409 1
     410      411      410 1
     411      412      411 1
     412      413      412 1
     413      414      409 1
     414      414      413 1
     415      416      415 1
     416      417      416 1
     417      418      417 1
     418      419      418 1
     419      420      415 1
     420      420      419 1
     421      422      421 1
     422      423      422 1
     423      424      423 1
     424      425      424 1
     425      426      421 1
     426      426      425 1
     427      428      427 1
     428      429      428 1
     429      430      429 1
     430      431      430 1
     431      432      427 1
     432      432      431 1
     433      434      433 1
     434      435      434 1
     435      436      435 1
     436      437      436 1
     437      438      433 1
     438      438      437 1
     439      440      439 1
     440      441      440 1
     441      442      441 1
     442      443      442 1
     443      444      439 1
     444      444      443 1
     445      446      445 1
     446      447      446 1
     447      448      447 1
     448      449      448 1
     449      450      445 1
     450      450      449 1
     451      452      451 1
     452      453      452 1
     453      454      453 1
     454      455      454 1
     455      456      451 1
     456      456      455 1
     457      458      457 1
     458      459      458 1
     459      460      459 1
     460      461      460 1
     461      462      457 1
     462      462      461 1
     463      464      463 1
     464      465      464 1
     465      466      465 1
     466      467      466 1
     467      468      463 1
     468      468      467 1
     469      470      469 1
     470      471      470 1
     471      472      471 1
     472      473      472 1
     473      474      469 1
     474      474      473 1
     475      476      475 1
     476      477      476 1
     477      478      477 1
     478      479      478 1
     479      480      475 1
     480      480      479 1
     481      482      481 1
     482      483      482 1
     483      484      483 1
     484      485      484 1
     485      486      481 1
     486      486      485 1
     487      488      487 1
     488      489      488 1
     489      490      489 1
     490      491      490 1
     491      492      487 1
     492      492      491 1
     493      494      493 1
     494      495      494 1
     495      496      495 1
     496      497      496 1
     497      498      493 1
     498      498      497 1
     499      500      499 1
     500      501      500 1
     501      502      501 1
     502      503      502 1
     503      504      499 1
     504      504      503 1
     505      506      505 1
     506      507      506 1
     507      508      507 1
     508      509      508 1
     509      510      505 1
     510      510      509 1
     511      512      511 1
     512      513      512 1
     513      514      513 1
     514      515      514 1
     515      516      511 1
     516      516      515 1
     517      518      517 1
     518      519      518 1
     519      520      519 1
     520      521      520 1
     521      522      517 1
     522      522      521 1
     523      524      523 1
     524      525      524 1
     525      526      525 1
     526      527      526 1
     527      528      523 1
     528      528      527 1
     529      530      529 1
     530      531      530 1
     531      532      531 1
     532      533      532 1
     533      534      529 1
     534      534      533 1
     535      536      535 1
     536      537      536 1
     537      538      537 1
     538      539      538 1
     539      540      535 1
     540      540      539 1
     541      542      541 1
     542      543      542 1
     543      544      543 1
     544      545      544 1
     545      546      541 1
     546      546      545 1
     547      548      547 1
     548      549      548 1
     549      550      549 1
     550      551      550 1
     551      552      547 1
     552      552      551 1
     553      554      553 1
     554      555      554 1
     555      556      555 1
     556      557      556 1
     557      558      553 1
     558      558      557 1
     559      560      559 1
     560      561      560 1
     561      562      561 1
     562      563      562 1
     563      564      559 1
     564      564      563 1
     565      566      565 1
     566      567      566 1
     567      568      567 1
     568      569      568 1
     569      570      565 1
     570      570      569 1
     571      572      571 1
     572      573      572 1
     573      574      573 1
     574      575      574 1
     575      576      571 1
     576      576      575 1
     577      578      577 1
     578      579      578 1
     579      580      579 1
     580      581      580 1
     581      582      577 1
     582      582      581 1
     583      584      583 1
     584      585      584 1
     585      586      585 1
     586      587      586 1
     587      588      583 1
     588      588      587 1
     589      590      589 1
     590      591      590 1
     591      592      591 1
     592      593      592 1
     593      594      589 1
     594      594      593 1
     595      596      595 1
     596      597      596 1
     597      598      597 1
     598      599      598 1
     599      600      595 1
     600      600      599 1
     601      602      601 1
     602      603      602 1
     603      604      603 1
     604      605      604 1
     605      606      601 1
     606      606      605 1
     607      608      607 1
     608      609      608 1
     609      610      609 1
     610      611      610 1
     611      612      607 1
     612      612      611 1
     613      614      613 1
     614      615      614 1
     615      616      615 1
     616      617      616 1
     617      618      613 1
     618      618      617 1
     619      620      619 1
     620      621      620 1
     621      622      621 1
     622      623      622 1
     623      624      619 1
     624      624      623 1
     625      626      625 1
     626      627      626 1
     627      628      627 1
     628      629      628 1
     629      630      625 1
     630      630      629 1
     631      632      631 1
     632      633      632 1
     633      634      633 1
     634      635      634 1
     635      636      631 1
     636      636      635 1
     637      638      637 1
     638      639      638 1
     639      640      639 1
     640      641      640 1
     641      642      637 1
     642      642      641 1
     643      644      643 1
     644      645      644 1
     645      646      645 1
     646      647      646 1
     647      648      643 1
     648      648      647 1
     649      650      649 1
     650      651      650 1
     651      652      651 1
     652      653      652 1
     653      654      649 1
     654      654      653 1
     655      656      655 1
     656      657      656 1
     657      658      657 1
     658      659      658 1
     659      660      655 1
     660      660      659 1
     661      662      661 1
     662      663      662 1
     663      664      663 1
     664      665      664 1
     665      666      661 1
     666      666      665 1
     667      668      667 1
     668      669      668 1
     669      670      669 1
     670      671      670 1
     671      672      667 1
     672      672      671 1
     673      674      673 1
     674      675      674 1
     675      676      675 1
     676      677      676 1
     677      678      673 1
     678      678      677 1
     679      680      679 1
     680      681      680 1
     681      682      681 1
     682      683      682 1
     683      684      679 1
     684      684      683 1
     685      686      685 1
     686      687      686 1
     687      688      687 1
     688      689      688 1
     689      690      685 1
     690      690      689 1
     691      692      691 1
     692      693      692 1
     693      694      693 1
     694      695      694 1
     695      696      691 1
     696      696      695 1
     697      698      697 1
     698      699      698 1
     699      700      699 1
     700      701      700 1
     701      702      697 1
     702      702      701 1
     703      704      703 1
     704      705      704 1
     705      706      705 1
     706      707      706 1
     707      708      703 1
     708      708      707 1
     709      710      709 1
     710      711      710 1
     711      712      711 1
     712      713      712 1
     713      714      709 1
     714      714      713 1
     715      716      715 1
     716      717      716 1
     717      718      717 1
     718      719      718 1
     719      720      715 1
     720      720      719 1
     721      722      721 1
     722      723      722 1
     723      724      723 1
     724      725      724 1
     725      726      721 1
     726      726      725 1
     727      728      727 1
     728      729      728 1
     729      730      729 1
     730      731      730 1
     731      732      727 1
     732      732      731 1
     733      734      733 1
     734      735      734 1
     735      736      735 1
     736      737      736 1
     737      738      733 1
     738      738      737 1
     739      740      739 1
     740      741      740 1
     741      742      741 1
     742      743      742 1
     743      744      739 1
     744      744      743 1
     745      746      745 1
     746      747      746 1
     747      748      747 1
     748      749      748 1
     749      750      745 1
     750      750      749 1
     751      752      751 1
     752      753      752 1
     753      754      753 1
     754      755      754 1
     755      756      751 1
     756      756      755 1
     757      758      757 1
     758      759      758 1
     759      760      759 1
     760      761      760 1
     761      762      757 1
     762      762      761 1
     763      764      763 1
     764      765      764 1
     765      766      765 1
     766      767      766 1
     767      768      763 1
     768      768      767 1
     769      770      769 1
     770      771      770 1
     771      772      771 1
     772      773      772 1
     773      774      769 1
     774      774      773 1
     775      776      775 1
     776      777      776 1
     777      778      777 1
     778      779      778 1
     779      780      775 1
     780      780      779 1
     781      782      781 1
     782      783      782 1
     783      784      783 1
     784      785      784 1
     785      786      781 1
     786      786      785 1
     787      788      787 1
     788      789      788 1
     789      790      789 1
     790      791      790 1
     791      792      787 1
     792      792      791 1
     793      794      793 1
     794      795      794 1
     795      796      795 1
     796      797      796 1
     797      798      793 1
     798      798      797 1
     799      800      799 1
     800      801      800 1
     801      802      801 1
     802      803      802 1
     803      804      799 1
     804      804      803 1
     805      806      805 1
     806      807      806 1
     807      808      807 1
     808      809      808 1
     809      810      805 1
     810      810      809 1
     811      812      811 1
     812      813      812 1
     813      814      813 1
     814      815      814 1
     815      816      811 1
     816      816      815 1
     817      818      817 1
     818      819      818 1
     819      820      819 1
     820      821      820 1
     821      822      817 1
     822      822      821 1
     823      824      823 1
     824      825      824 1
     825      826      825 1
     826      827      826 1
     827      828      823 1
     828      828      827 1
     829      830      829 1
     830      831      830 1
     831      832      831 1
     832      833      832 1
     833      834      829 1
     834      834      833 1
     835      836      835 1
     836      837      836 1
     837      838      837 1
     838      839      838 1
     839      840      835 1
     840      840      839 1
     841      842      841 1
     842      843      842 1
     843      844      843 1
     844      845      844 1
     845      846      841 1
     846      846      845 1
     847      848      847 1
     848      849      848 1
     849      850      849 1
     850      851      850 1
     851      852      847 1
     852      852      851 1
     853      854      853 1
     854      855      854 1
     855      856      855 1
     856      857      856 1
     857      858      853 1
     858      858      857 1
     859      860      859 1
     860      861      860 1
     861      862      861 1
     862      863      862 1
     863      864      859 1
     864      864      863 1
     865      866      865 1
     866      867      866 1
     867      868      867 1
     868      869      868 1
     869      870      865 1
     870      870      869 1
     871      872      871 1
     872      873      872 1
     873      874      873 1
     874      875      874 1
     875      876      871 1
     876      876      875 1
     877      878      877 1
     878      879      878 1
     879      880      879 1
     880      881      880 1
     881      882      877 1
     882      882      881 1
     883      884      883 1
     884      885      884 1
     885      886      885 1
     886      887      886 1
     887      888      883 1
     888      888      887 1
     889      890      889 1
     890      891      890 1
     891      892      891 1
     892      893      892 1
     893      894      889 1
     894      894      893 1
     895      896      895 1
     896      897      896 1
     897      898      897 1
     898      899      898 1
     899      900      895 1
     900      900      899 1
     901      902      901 1
     902      903      902 1
     903      904      903 1
     904      905      904 1
     905      906      901 1
     906      906      905 1
     907      908      907 1
     908      909      908 1
     909      910      909 1
     910      911      910 1
     911      912      907 1
     912      912      911 1
     913      914      913 1
     914      915      914 1
     915      916      915 1
     916      917      916 1
     917      918      913 1
     918      918      917 1
     919      920      919 1
     920      921      920 1
     921      922      921 1
     922      923      922 1
     923      924      919 1
     924      924      923 1
     925      926      925 1
     926      927      926 1
     927      928      927 1
     928      929      928 1
     929      930      925 1
     930      930      929 1
     931      932      931 1
     932      933      932 1
     933      934      933 1
     934      935      934 1
     935      936      931 1
     936      936      935 1
     937      938      937 1
     938      939      938 1
     939      940      939 1
     940      941      940 1
     941      942      937 1
     942      942      941 1
     943      944      943 1
     944      945      944 1
     945      946      945 1
     946      947      946 1
     947      948      943 1
     948      948      947 1
     949      950      949 1
     950      951      950 1
     951      952      951 1
     952      953      952 1
     953      954      949 1
     954      954      953 1
     955      956      955 1
     956      957      956 1
     957      958      957 1
     958      959      958 1
     959      960      955 1
     960      960      959 1
     961      962      961 1
     962      963      962 1
     963      964      963 1
     964      965      964 1
     965      966      961 1
     966      966      965 1
     967      968      967 1
     968      969      968 1
     969      970      969 1
     970      971      970 1
     971      972      967 1
     972      972      971 1
     973      974      973 1
     974      975      974 1
     975      976      975 1
     976      977      976 1
     977      978      973 1
     978      978      977 1
     979      980      979 1
     980      981      980 1
     981      982      981 1
     982      983      982 1
     983      984      979 1
     984      984      983 1
     985      986      985 1
     986      987      986 1
     987      988      987 1
     988      989      988 1
     989      990      985 1
     990      990      989 1
     991      992      991 1
     992      993      992 1
     993      994      993 1
     994      995      994 1
     995      996      991 1
     996      996      995 1
     997      998      997 1
     998      999      998 1
     999     1000      999 1
    1000     1001     1000 1
    1001     1002      997 1
    1002     1002     1001 1
    1003     1004     1003 1
    1004     1005     1004 1
    1005     1006     1005 1
    1006     1007     1006 1
    1007     1008     1003 1
    1008     1008     1007 1
    1009     1010     1009 1
    1010     1011     1010 1
    1011     1012     1011 1
    1012     1013     1012 1
    1013     1014     1009 1
    1014     1014     1013 1
    1015     1016     1015 1
    1016     1017     1016 1
    1017     1018     1017 1
    1018     1019     1018 1
    1019     1020     1015 1
    1020     1020     1019 1
    1021     1022     1021 1
    1022     1023     1022 1
    1023     1024     1023 1
    1024     1025     1024 1
    1025     1026     1021 1
    1026     1026     1025 1
    1027     1028     1027 1
    1028     1029     1028 1
    1029     1030     1029 1
    1030     1031     1030 1
    1031     1032     1027 1
    1032     1032     1031 1
    1033     1034     1033 1
    1034     1035     1034 1
    1035     1036     1035 1
    1036     1037     1036 1
    1037     1038     1033 1
    1038     1038     1037 1
    1039     1040     1039 1
    1040     1041     1040 1
    1041     1042     1041 1
    1042     1043     1042 1
    1043     1044     1039 1
    1044     1044     1043 1
    1045     1046     1045 1
    1046     1047     1046 1
    1047     1048     1047 1
    1048     1049     1048 1
    1049     1050     1045 1
    1050     1050     1049 1
    1051     1052     1051 1
    1052     1053     1052 1
    1053     1054     1053 1
    1054     1055     1054 1
    1055     1056     1051 1
    1056     1056     1055 1
    1057     1058     1057 1
    1058     1059     1058 1
    1059     1060     1059 1
    1060     1061     1060 1
    1061     1062     1057 1
    1062     1062     1061 1
    1063     1064     1063 1
    1064     1065     1064 1
    1065     1066     1065 1
    1066     1067     1066 1
    1067     1068     1063 1
    1068     1068     1067 1
    1069     1070     1069 1
    1070     1071     1070 1
    1071     1072     1071 1
    1072     1073     1072 1
    1073     1074     1069 1
    1074     1074     1073 1
    1075     1076     1075 1
    1076     1077     1076 1
    1077     1078     1077 1
    1078     1079     1078 1
    1079     1080     1075 1
    1080     1080     1079 1
    1081     1082     1081 1
    1082     1083     1082 1
    1083     1084     1083 1
    1084     1085     1084 1
    1085     1086     1081 1
    1086     1086     1085 1
    1087     1088     1087 1
    1088     1089     1088 1
    1089     1090     1089 1
    1090     1091     1090 1
    1091     1092     1087 1
    1092     1092     1091 1
    1093     1094     1093 1
    1094     1095     1094 1
    1095     1096     1095 1
    1096     1097     1096 1
    1097     1098     1093 1
    1098     1098     1097 1
    1099     1100     1099 1
    1100     1101     1100 1
    1101     1102     1101 1
    1102     1103     1102 1
    1103     1104     1099 1
    1104     1104     1103 1
    1105     1106     1105 1
    1106     1107     1106 1
    1107     1108     1107 1
    1108     1109     1108 1
    1109     1110     1105 1
    1110     1110     1109 1
    1111     1112     1111 1
    1112     1113     1112 1
    1113     1114     1113 1
    1114     1115     1114 1
    1115     1116     1111 1
    1116     1116     1115 1
    1117     1118     1117 1
    1118     1119     1118 1
    1119     1120     1119 1
    1120     1121     1120 1
    1121     1122     1117 1
    1122     1122     1121 1
    1123     1124     1123 1
    1124     1125     1124 1
    1125     1126     1125 1
    1126     1127     1126 1
    1127     1128     1123 1
    1128     1128     1127 1
    1129     1130     1129 1
    1130     1131     1130 1
    1131     1132     1131 1
    1132     1133     1132 1
    1133     1134     1129 1
    1134     1134     1133 1
    1135     1136     1135 1
    1136     1137     1136 1
    1137     1138     1137 1
    1138     1139     1138 1
    1139     1140     1135 1
    1140     1140     1139 1
    1141     1142     1141 1
    1142     1143     1142 1
    1143     1144     1143 1
    1144     1145     1144 1
    1145     1146     1141 1
    1146     1146     1145 1
    1147     1148     1147 1
    1148     1149     1148 1
    1149     1150     1149 1
    1150     1151     1150 1
    1151     1152     1147 1
    1152     1152     1151 1
    1153     1154     1153 1
    1154     1155     1154 1
    1155     1156     1155 1
    1156     1157     1156 1
    1157     1158     1153 1
    1158     1158     1157 1
    1159     1160     1159 1
    1160     1161     1160 1
    1161     1162     1161 1
    1162     1163     1162 1
    1163     1164     1159 1
    1164     1164     1163 1
    1165     1166     1165 1
    1166     1167     1166 1
    1167     1168     1167 1
    1168     1169     1168 1
    1169     1170     1165 1
    1170     1170     1169 1
    1171     1172     1171 1
    1172     1173     1172 1
    1173     1174     1173 1
    1174     1175     1174 1
    1175     1176     1171 1
    1176     1176     1175 1
    1177     1178     1177 1
    1178     1179     1178 1
    1179     1180     1179 1
    1180     1181     1180 1
    1181     1182     1177 1
    1182     1182     1181 1
    1183     1184     1183 1
    1184     1185     1184 1
    1185     1186     1185 1
    1186     1187     1186 1
    1187     1188     1183 1
    1188     1188     1187 1
    1189     1190     1189 1
    1190     1191     1190 1
    1191     1192     1191 1
    1192     1193     1192 1
    1193     1194     1189 1
    1194     1194     1193 1
    1195     1196     1195 1
    1196     1197     1196 1
    1197     1198     1197 1
    1198     1199     1198 1
    1199     1200     1195 1
    1200     1200     1199 1
    1201     1202     1201 1
    1202     1203     1202 1
    1203     1204     1203 1
    1204     1205     1204 1
    1205     1206     1201 1
    1206     1206     1205 1
    1207     1208     1207 1
    1208     1209     1208 1
    1209     1210     1209 1
    1210     1211     1210 1
    1211     1212     1207 1
    1212     1212     1211 1
    1213     1214     1213 1
    1214     1215     1214 1
    1215     1216     1215 1
    1216     1217     1216 1
    1217     1218     1213 1
    1218     1218     1217 1
    1219     1220     1219 1
    1220     1221     1220 1
    1221     1222     1221 1
    1222     1223     1222 1
    1223     1224     1219 1
    1224     1224     1223 1
    1225     1226     1225 1
    1226     1227     1226 1
    1227     1228     1227 1
    1228     1229     1228 1
    1229     1230     1225 1
    1230     1230     1229 1
    1231     1232     1231 1
    1232     1233     1232 1
    1233     1234     1233 1
    1234     1235     1234 1
    1235     1236     1231 1
    1236     1236     1235 1
    1237     1238     1237 1
    1238     1239     1238 1
    1239     1240     1239 1
    1240     1241     1240 1
    1241     1242     1237 1
    1242     1242     1241 1
    1243     1244     1243 1
    1244     1245     1244 1
    1245     1246     1245 1
    1246     1247     1246 1
    1247     1248     1243 1
    1248     1248     1247 1
    1249     1250     1249 1
    1250     1251     1250 1
    1251     1252     1251 1
    1252     1253     1252 1
    1253     1254     1249 1
    1254     1254     1253 1
    1255     1256     1255 1
    1256     1257     1256 1
    1257     1258     1257 1
    1258     1259     1258 1
    1259     1260     1255 1
    1260     1260     1259 1
    1261     1262     1261 1
    1262     1263     1262 1
    1263     1264     1263 1
    1264     1265     1264 1
    1265     1266     1261 1
    1266     1266     1265 1
    1267     1268     1267 1
    1268     1269     1268 1
    1269     1270     1269 1
    1270     1271     1270 1
    1271     1272     1267 1
    1272     1272     1271 1
    1273     1274     1273 1
    1274     1275     1274 1
    1275     1276     1275 1
    1276     1277     1276 1
    1277     1278     1273 1
    1278     1278     1277 1
    1279     1280     1279 1
    1280     1281     1280 1
    1281     1282     1281 1
    1282     1283     1282 1
    1283     1284     1279 1
    1284     1284     1283 1
    1285     1286     1285 1
    1286     1287     1286 1
    1287     1288     1287 1
    1288     1289     1288 1
    1289     1290     1285 1
    1290     1290     1289 1
    1291     1292     1291 1
    1292     1293     1292 1
    1293     1294     1293 1
    1294     1295     1294 1
    1295     1296     1291 1
    1296     1296     1295 1
    1297     1298     1297 1
    1298     1299     1298 1
    1299     1300     1299 1
    1300     1301     1300 1
    1301     1302     1297 1
    1302     1302     1301 1
    1303     1304     1303 1
    1304     1305     1304 1
    1305     1306     1305 1
    1306     1307     1306 1
    1307     1308     1303 1
    1308     1308     1307 1
    1309     1310     1309 1
    1310     1311     1310 1
    1311     1312     1311 1
    1312     1313     1312 1
    1313     1314     1309 1
    1314     1314     1313 1
    1315     1316     1315 1
    1316     1317     1316 1
    1317     1318     1317 1
    1318     1319     1318 1
    1319     1320     1315 1
    1320     1320     1319 1
    1321     1322     1321 1
    1322     1323     1322 1
    1323     1324     1323 1
    1324     1325     1324 1
    1325     1326     1321 1
    1326     1326     1325 1
    1327     1328     1327 1
    1328     1329     1328 1
    1329     1330     1329 1
    1330     1331     1330 1
    1331     1332     1327 1
    1332     1332     1331 1
    1333     1334     1333 1
    1334     1335     1334 1
    1335     1336     1335 1
    1336     1337     1336 1
    1337     1338     1333 1
    1338     1338     1337 1
    1339     1340     1339 1
    1340     1341     1340 1
    1341     1342     1341 1
    1342     1343     1342 1
    1343     1344     1339 1
    1344     1344     1343 1
    1345     1346     1345 1
    1346     1347     1346 1
    1347     1348     1347 1
    1348     1349     1348 1
    1349     1350     1345 1
    1350     1350     1349 1
    1351     1352     1351 1
    1352     1353     1352 1
    1353     1354     1353 1
    1354     1355     1354 1
    1355     1356     1351 1
    1356     1356     1355 1
    1357     1358     1357 1
    1358     1359     1358 1
    1359     1360     1359 1
    1360     1361     1360 1
    1361     1362     1357 1
    1362     1362     1361 1
    1363     1364     1363 1
    1364     1365     1364 1
    1365     1366     1365 1
    1366     1367     1366 1
    1367     1368     1363 1
    1368     1368     1367 1
    1369     1370     1369 1
    1370     1371     1370 1
    1371     1372     1371 1
    1372     1373     1372 1
    1373     1374     1369 1
    1374     1374     1373 1
    1375     1376     1375 1
    1376     1377     1376 1
    1377     1378     1377 1
    1378     1379     1378 1
    1379     1380     1375 1
    1380     1380     1379 1
    1381     1382     1381 1
    1382     1383     1382 1
    1383     1384     1383 1
    1384     1385     1384 1
    1385     1386     1381 1
    1386     1386     1385 1
    1387     1388     1387 1
    1388     1389     1388 1
    1389     1390     1389 1
    1390     1391     1390 1
    1391     1392     1387 1
    1392     1392     1391 1
    1393     1394     1393 1
    1394     1395     1394 1
    1395     1396     1395 1
    1396     1397     1396 1
    1397     1398     1393 1
    1398     1398     1397 1
    1399     1400     1399 1
    1400     1401     1400 1
    1401     1402     1401 1
    1402     1403     1402 1
    1403     1404     1399 1
    1404     1404     1403 1
    1405     1406     1405 1
    1406     1407     1406 1
    1407     1408     1407 1
    1408     1409     1408 1
    1409     1410     1405 1
    1410     1410     1409 1
    1411     1412     1411 1
    1412     1413     1412 1
    1413     1414     1413 1
    1414     1415     1414 1
    1415     1416     1411 1
    1416     1416     1415 1
    1417     1418     1417 1
    1418     1419     1418 1
    1419     1420     1419 1
    1420     1421     1420 1
    1421     1422     1417 1
    1422     1422     1421 1
    1423     1424     1423 1
    1424     1425     1424 1
    1425     1426     1425 1
    1426     1427     1426 1
    1427     1428     1423 1
    1428     1428     1427 1
    1429     1430     1429 1
    1430     1431     1430 1
    1431     1432     1431 1
    1432     1433     1432 1
    1433     1434     1429 1
    1434     1434     1433 1
    1435     1436     1435 1
    1436     1437     1436 1
    1437     1438     1437 1
    1438     1439     1438 1
    1439     1440     1435 1
    1440     1440     1439 1
    1441     1442     1441 1
    1442     1443     1442 1
    1443     1444     1443 1
    1444     1445     1444 1
    1445     1446     1441 1
    1446     1446     1445 1
    1447     1448     1447 1
    1448     1449     1448 1
    1449     1450     1449 1
    1450     1451     1450 1
    1451     1452     1447 1
    1452     1452     1451 1
    1453     1454     1453 1
    1454     1455     1454 1
    1455     1456     1455 1
    1456     1457     1456 1
    1457     1458     1453 1
    1458     1458     1457 1
    1459     1460     1459 1
    1460     1461     1460 1
    1461     1462     1461 1
    1462     1463     1462 1
    1463     1464     1459 1
    1464     1464     1463 1
    1465     1466     1465 1
    1466     1467     1466 1
    1467     1468     1467 1
    1468     1469     1468 1
    1469     1470     1465 1
    1470     1470     1469 1
    1471     1472     1471 1
    1472     1473     1472 1
    1473     1474     1473 1
    1474     1475     1474 1
    1475     1476     1471 1
    1476     1476     1475 1
    1477     1478     1477 1
    1478     1479     1478 1
    1479     1480     1479 1
    1480     1481     1480 1
    1481     1482     1477 1
    1482     1482     1481 1
    1483     1484     1483 1
    1484     1485     1484 1
    1485     1486     1485 1
    1486     1487     1486 1
    1487     1488     1483 1
    1488     1488     1487 1
    1489     1490     1489 1
    1490     1491     1490 1
    1491     1492     1491 1
    1492     1493     1492 1
    1493     1494     1489 1
    1494     1494     1493 1
    1495     1496     1495 1
    1496     1497     1496 1
    1497     1498     1497 1
    1498     1499     1498 1
    1499     1500     1495 1
    1500     1500     1499 1
    1501     1502     1501 1
    1502     1503     1502 1
    1503     1504     1503 1
    1504     1505     1504 1
    1505     1506     1501 1
    1506     1506     1505 1
    1507     1508     1507 1
    1508     1509     1508 1
    1509     1510     1509 1
    1510     1511     1510 1
    1511     1512     1507 1
    1512     1512     1511 1
    1513     1514     1513 1
    1514     1515     1514 1
    1515     1516     1515 1
    1516     1517     1516 1
    1517     1518     1513 1
    1518     1518     1517 1
    1519     1520     1519 1
    1520     1521     1520 1
    1521     1522     1521 1
    1522     1523     1522 1
    1523     1524     1519 1
    1524     1524     1523 1
    1525     1526     1525 1
    1526     1527     1526 1
    1527     1528     1527 1
    1528     1529     1528 1
    1529     1530     1525 1
    1530     1530     1529 1
    1531     1532     1531 1
    1532     1533     1532 1
    1533     1534     1533 1
    1534     1535     1534 1
    1535     1536     1531 1
    1536     1536     1535 1
    1537     1538     1537 1
    1538     1539     1538 1
    1539     1540     1539 1
    1540     1541     1540 1
    1541     1542     1537 1
    1542     1542     1541 1
    1543     1544     1543 1
    1544     1545     1544 1
    1545     1546     1545 1
    1546     1547     1546 1
    1547     1548     1543 1
    1548     1548     1547 1
    1549     1550     1549 1
    1550     1551     1550 1
    1551     1552     1551 1
    1552     1553     1552 1
    1553     1554     1549 1
    1554     1554     1553 1
    1555     1556     1555 1
    1556     1557     1556 1
    1557     1558     1557 1
    1558     1559     1558 1
    1559     1560     1555 1
    1560     1560     1559 1
    1561     1562     1561 1
    1562     1563     1562 1
    1563     1564     1563 1
    1564     1565     1564 1
    1565     1566     1561 1
    1566     1566     1565 1
    1567     1568     1567 1
    1568     1569     1568 1
    1569     1570     1569 1
    1570     1571     1570 1
    1571     1572     1567 1
    1572     1572     1571 1
    1573     1574     1573 1
    1574     1575     1574 1
    1575     1576     1575 1
    1576     1577     1576 1
    1577     1578     1573 1
    1578     1578     1577 1
    1579     1580     1579 1
    1580     1581     1580 1
    1581     1582     1581 1
    1582     1583     1582 1
    1583     1584     1579 1
    1584     1584     1583 1
    1585     1586     1585 1
    1586     1587     1586 1
    1587     1588     1587 1
    1588     1589     1588 1
    1589     1590     1585 1
    1590     1590     1589 1
    1591     1592     1591 1
    1592     1593     1592 1
    1593     1594     1593 1
    1594     1595     1594 1
    1595     1596     1591 1
    1596     1596     1595 1
    1597     1598     1597 1
    1598     1599     1598 1
    1599     1600     1599 1
    1600     1601     1600 1
    1601     1602     1597 1
    1602     1602     1601 1
    1603     1604     1603 1
    1604     1605     1604 1
    1605     1606     1605 1
    1606     1607     1606 1
    1607     1608     1603 1
    1608     1608     1607 1
    1609     1610     1609 1
    1610     1611     1610 1
    1611     1612     1611 1
    1612     1613     1612 1
    1613     1614     1609 1
    1614     1614     1613 1
    1615     1616     1615 1
    1616     1617     1616 1
    1617     1618     1617 1
    1618     1619     1618 1
    1619     1620     1615 1
    1620     1620     1619 1
    1621     1622     1621 1
    1622     1623     1622 1
    1623     1624     1623 1
    1624     1625     1624 1
    1625     1626     1621 1
    1626     1626     1625 1
    1627     1628     1627 1
    1628     1629     1628 1
    1629     1630     1629 1
    1630     1631     1630 1
    1631     1632     1627 1
    1632     1632     1631 1
    1633     1634     1633 1
    1634     1635     1634 1
    1635     1636     1635 1
    1636     1637     1636 1
    1637     1638     1633 1
    1638     1638     1637 1
    1639     1640     1639 1
    1640     1641     1640 1
    1641     1642     1641 1
    1642     1643     1642 1
    1643     1644     1639 1
    1644     1644     1643 1
    1645     1646     1645 1
    1646     1647     1646 1
    1647     1648     1647 1
    1648     1649     1648 1
    1649     1650     1645 1
    1650     1650     1649 1
    1651     1652     1651 1
    1652     1653     1652 1
    1653     1654     1653 1
    1654     1655     1654 1
    1655     1656     1651 1
    1656     1656     1655 1
    1657     1658     1657 1
    1658     1659     1658 1
    1659     1660     1659 1
    1660     1661     1660 1
    1661     1662     1657 1
    1662     1662     1661 1
    1663     1664     1663 1
    1664     1665     1664 1
    1665     1666     1665 1
    1666     1667     1666 1
    1667     1668     1663 1
    1668     1668     1667 1
    1669     1670     1669 1
    1670     1671     1670 1
    1671     1672     1671 1
    1672     1673     1672 1
    1673     1674     1669 1
    1674     1674     1673 1
    1675     1676     1675 1
    1676     1677     1676 1
    1677     1678     1677 1
    1678     1679     1678 1
    1679     1680     1675 1
    1680     1680     1679 1
    1681     1682     1681 1
    1682     1683     1682 1
    1683     1684     1683 1
    1684     1685     1684 1
    1685     1686     1681 1
    1686     1686     1685 1
    1687     1688     1687 1
    1688     1689     1688 1
    1689     1690     1689 1
    1690     1691     1690 1
    1691     1692     1687 1
    1692     1692     1691 1
    1693     1694     1693 1
    1694     1695     1694 1
    1695     1696     1695 1
    1696     1697     1696 1
    1697     1698     1693 1
    1698     1698     1697 1
    1699     1700     1699 1
    1700     1701     1700 1
    1701     1702     1701 1
    1702     1703     1702 1
    1703     1704     1699 1
    1704     1704     1703 1
    1705     1706     1705 1
    1706     1707     1706 1
    1707     1708     1707 1
    1708     1709     1708 1
    1709     1710     1705 1
    1710     1710     1709 1
    1711     1712     1711 1
    1712     1713     1712 1
    1713     1714     1713 1
    1714     1715     1714 1
    1715     1716     1711 1
    1716     1716     1715 1
    1717     1718     1717 1
    1718     1719     1718 1
    1719     1720     1719 1
    1720     1721     1720 1
    1721     1722     1717 1
    1722     1722     1721 1
    1723     1724     1723 1
    1724     1725     1724 1
    1725     1726     1725 1
    1726     1727     1726 1
    1727     1728     1723 1
    1728     1728     1727 1
    1729     1730     1729 1
    1730     1731     1730 1
    1731     1732     1731 1
    1732     1733     1732 1
    1733     1734     1729 1
    1734     1734     1733 1
    1735     1736     1735 1
    1736     1737     1736 1
    1737     1738     1737 1
    1738     1739     1738 1
    1739     1740     1735 1
    1740     1740     1739 1
    1741     1742     1741 1
    1742     1743     1742 1
    1743     1744     1743 1
    1744     1745     1744 1
    1745     1746     1741 1
    1746     1746     1745 1
    1747     1748     1747 1
    1748     1749     1748 1
    1749     1750     1749 1
    1750     1751     1750 1
    1751     1752     1747 1
    1752     1752     1751 1
    1753     1754     1753 1
    1754     1755     1754 1
    1755     1756     1755 1
    1756     1757     1756 1
    1757     1758     1753 1
    1758     1758     1757 1
    1759     1760     1759 1
    1760     1761     1760 1
    1761     1762     1761 1
    1762     1763     1762 1
    1763     1764     1759 1
    1764     1764     1763 1
    1765     1766     1765 1
    1766     1767     1766 1
    1767     1768     1767 1
    1768     1769     1768 1
    1769     1770     1765 1
    1770     1770     1769 1
    1771     1772     1771 1
    1772     1773     1772 1
    1773     1774     1773 1
    1774     1775     1774 1
    1775     1776     1771 1
    1776     1776     1775 1
    1777     1778     1777 1
    1778     1779     1778 1
    1779     1780     1779 1
    1780     1781     1780 1
    1781     1782     1777 1
    1782     1782     1781 1
    1783     1784     1783 1
    1784     1785     1784 1
    1785     1786     1785 1
    1786     1787     1786 1
    1787     1788     1783 1
    1788     1788     1787 1
    1789     1790     1789 1
    1790     1791     1790 1
    1791     1792     1791 1
    1792     1793     1792 1
    1793     1794     1789 1
    1794     1794     1793 1
    1795     1796     1795 1
    1796     1797     1796 1
    1797     1798     1797 1
    1798     1799     1798 1
    1799     1800     1795 1
    1800     1800     1799 1
    1801     1802     1801 1
    1802     1803     1802 1
    1803     1804     1803 1
    1804     1805     1804 1
    1805     1806     1801 1
    1806     1806     1805 1
    1807     1808     1807 1
    1808     1809     1808 1
    1809     1810     1809 1
    1810     1811     1810 1
    1811     1812     1807 1
    1812     1812     1811 1
    1813     1814     1813 1
    1814     1815     1814 1
    1815     1816     1815 1
    1816     1817     1816 1
    1817     1818     1813 1
    1818     1818     1817 1
    1819     1820     1819 1
    1820     1821     1820 1
    1821     1822     1821 1
    1822     1823     1822 1
    1823     1824     1819 1
    1824     1824     1823 1
    1825     1826     1825 1
    1826     1827     1826 1
    1827     1828     1827 1
    1828     1829     1828 1
    1829     1830     1825 1
    1830     1830     1829 1
    1831     1832     1831 1
    1832     1833     1832 1
    1833     1834     1833 1
    1834     1835     1834 1
    1835     1836     1831 1
    1836     1836     1835 1
    1837     1838     1837 1
    1838     1839     1838 1
    1839     1840     1839 1
    1840     1841     1840 1
    1841     1842     1837 1
    1842     1842     1841 1
    1843     1844     1843 1
    1844     1845     1844 1
    1845     1846     1845 1
    1846     1847     1846 1
    1847     1848     1843 1
    1848     1848     1847 1
    1849     1850     1849 1
    1850     1851     1850 1
    1851     1852     1851 1
    1852     1853     1852 1
    1853     1854     1849 1
    1854     1854     1853 1
    1855     1856     1855 1
    1856     1857     1856 1
    1857     1858     1857 1
    1858     1859     1858 1
    1859     1860     1855 1
    1860     1860     1859 1
    1861     1862     1861 1
    1862     1863     1862 1
    1863     1864     1863 1
    1864     1865     1864 1
    1865     1866     1861 1
    1866     1866     1865 1
    1867     1868     1867 1
    1868     1869     1868 1
    1869     1870     1869 1
    1870     1871     1870 1
    1871     1872     1867 1
    1872     1872     1871 1
    1873     1874     1873 1
    1874     1875     1874 1
    1875     1876     1875 1
    1876     1877     1876 1
    1877     1878     1873 1
    1878     1878     1877 1
    1879     1880     1879 1
    1880     1881     1880 1
    1881     1882     1881 1
    1882     1883     1882 1
    1883     1884     1879 1
    1884     1884     1883 1
    1885     1886     1885 1
    1886     1887     1886 1
    1887     1888     1887 1
    1888     1889     1888 1
    1889     1890     1885 1
    1890     1890     1889 1
    1891     1892     1891 1
    1892     1893     1892 1
    1893     1894     1893 1
    1894     1895     1894 1
    1895     1896     1891 1
    1896     1896     1895 1
    1897     1898     1897 1
    1898     1899     1898 1
    1899     1900     1899 1
    1900     1901     1900 1
    1901     1902     1897 1
    1902     1902     1901 1
    1903     1904     1903 1
    1904     1905     1904 1
    1905     1906     1905 1
    1906     1907     1906 1
    1907     1908     1903 1
    1908     1908     1907 1
    1909     1910     1909 1
    1910     1911     1910 1
    1911     1912     1911 1
    1912     1913     1912 1
    1913     1914     1909 1
    1914     1914     1913 1
    1915     1916     1915 1
    1916     1917     1916 1
    1917     1918     1917 1
    1918     1919     1918 1
    1919     1920     1915 1
    1920     1920     1919 1
    1921     1922     1921 1
    1922     1923     1922 1
    1923     1924     1923 1
    1924     1925     1924 1
    1925     1926     1921 1
    1926     1926     1925 1
    1927     1928     1927 1
    1928     1929     1928 1
    1929     1930     1929 1
    1930     1931     1930 1
    1931     1932     1927 1
    1932     1932     1931 1
    1933     1934     1933 1
    1934     1935     1934 1
    1935     1936     1935 1
    1936     1937     1936 1
    1937     1938     1933 1
    1938     1938     1937 1
    1939     1940     1939 1
    1940     1941     1940 1
    1941     1942     1941 1
    1942     1943     1942 1
    1943     1944     1939 1
    1944     1944     1943 1
    1945     1946     1945 1
    1946     1947     1946 1
    1947     1948     1947 1
    1948     1949     1948 1
    1949     1950     1945 1
    1950     1950     1949 1
    1951     1952     1951 1
    1952     1953     1952 1
    1953     1954     1953 1
    1954     1955     1954 1
    1955     1956     1951 1
    1956     1956     1955 1
    1957     1958     1957 1
    1958     1959     1958 1
    1959     1960     1959 1
    1960     1961     1960 1
    1961     1962     1957 1
    1962     1962     1961 1
    1963     1964     1963 1
    1964     1965     1964 1
    1965     1966     1965 1
    1966     1967     1966 1
    1967     1968     1963 1
    1968     1968     1967 1
    1969     1970     1969 1
    1970     1971     1970 1
    1971     1972     1971 1
    1972     1973     1972 1
    1973     1974     1969 1
    1974     1974     1973 1
    1975     1976     1975 1
    1976     1977     1976 1
    1977     1978     1977 1
    1978     1979     1978 1
    1979     1980     1975 1
    1980     1980     1979 1
    1981     1982     1981 1
    1982     1983     1982 1
    1983     1984     1983 1
    1984     1985     1984 1
    1985     1986     1981 1
    1986     1986     1985 1
    1987     1988     1987 1
    1988     1989     1988 1
    1989     1990     1989 1
    1990     1991     1990 1
    1991     1992     1987 1
    1992     1992     1991 1
    1993     1994     1993 1
    1994     1995     1994 1
    1995     1996     1995 1
    1996     1997     1996 1
    1997     1998     1993 1
    1998     1998     1997 1
    1999     2000     1999 1
    2000     2001     2000 1
    2001     2002     2001 1
    2002     2003     2002 1
    2003     2004     1999 1
    2004     2004     2003 1
    2005     2006     2005 1
    2006     2007     2006 1
    2007     2008     2007 1
    2008     2009     2008 1
    2009     2010     2005 1
    2010     2010     2009 1
    2011     2012     2011 1
    2012     2013     2012 1
    2013     2014     2013 1
    2014     2015     2014 1
    2015     2016     2011 1
    2016     2016     2015 1
    2017     2018     2017 1
    2018     2019     2018 1
    2019     2020     2019 1
    2020     2021     2020 1
    2021     2022     2017 1
    2022     2022     2021 1
    2023     2024     2023 1
    2024     2025     2024 1
    2025     2026     2025 1
    2026     2027     2026 1
    2027     2028     2023 1
    2028     2028     2027 1
    2029     2030     2029 1
    2030     2031     2030 1
    2031     2032     2031 1
    2032     2033     2032 1
    2033     2034     2029 1
    2034     2034     2033 1
    2035     2036     2035 1
    2036     2037     2036 1
    2037     2038     2037 1
    2038     2039     2038 1
    2039     2040     2035 1
    2040     2040     2039 1
    2041     2042     2041 1
    2042     2043     2042 1
    2043     2044     2043 1
    2044     2045     2044 1
    2045     2046     2041 1
    2046     2046     2045 1
    2047     2048     2047 1
    2048     2049     2048 1
    2049     2050     2049 1
    2050     2051     2050 1
    2051     2052     2047 1
    2052     2052     2051 1
    2053     2054     2053 1
    2054     2055     2054 1
    2055     2056     2055 1
    2056     2057     2056 1
    2057     2058     2053 1
    2058     2058     2057 1
    2059     2060     2059 1
    2060     2061     2060 1
    2061     2062     2061 1
    2062     2063     2062 1
    2063     2064     2059 1
    2064     2064     2063 1
    2065     2066     2065 1
    2066     2067     2066 1
    2067     2068     2067 1
    2068     2069     2068 1
    2069     2070     2065 1
    2070     2070     2069 1
    2071     2072     2071 1
    2072     2073     2072 1
    2073     2074     2073 1
    2074     2075     2074 1
    2075     2076     2071 1
    2076     2076     2075 1
    2077     2078     2077 1
    2078     2079     2078 1
    2079     2080     2079 1
    2080     2081     2080 1
    2081     2082     2077 1
    2082     2082     2081 1
    2083     2084     2083 1
    2084     2085     2084 1
    2085     2086     2085 1
    2086     2087     2086 1
    2087     2088     2083 1
    2088     2088     2087 1
    2089     2090     2089 1
    2090     2091     2090 1
    2091     2092     2091 1
    2092     2093     2092 1
    2093     2094     2089 1
    2094     2094     2093 1
    2095     2096     2095 1
    2096     2097     2096 1
    2097     2098     2097 1
    2098     2099     2098 1
    2099     2100     2095 1
    2100     2100     2099 1
    2101     2102     2101 1
    2102     2103     2102 1
    2103     2104     2103 1
    2104     2105     2104 1
    2105     2106     2101 1
    2106     2106     2105 1
    2107     2108     2107 1
    2108     2109     2108 1
    2109     2110     2109 1
    2110     2111     2110 1
    2111     2112     2107 1
    2112     2112     2111 1
    2113     2114     2113 1
    2114     2115     2114 1
    2115     2116     2115 1
    2116     2117     2116 1
    2117     2118     2113 1
    2118     2118     2117 1
    2119     2120     2119 1
    2120     2121     2120 1
    2121     2122     2121 1
    2122     2123     2122 1
    2123     2124     2119 1
    2124     2124     2123 1
    2125     2126     2125 1
    2126     2127     2126 1
    2127     2128     2127 1
    2128     2129     2128 1
    2129     2130     2125 1
    2130     2130     2129 1
    2131     2132     2131 1
    2132     2133     2132 1
    2133     2134     2133 1
    2134     2135     2134 1
    2135     2136     2131 1
    2136     2136     2135 1
    2137     2138     2137 1
    2138     2139     2138 1
    2139     2140     2139 1
    2140     2141     2140 1
    2141     2142     2137 1
    2142     2142     2141 1
    2143     2144     2143 1
    2144     2145     2144 1
    2145     2146     2145 1
    2146     2147     2146 1
    2147     2148     2143 1
    2148     2148     2147 1
    2149     2150     2149 1
    2150     2151     2150 1
    2151     2152     2151 1
    2152     2153     2152 1
    2153     2154     2149 1
    2154     2154     2153 1
    2155     2156     2155 1
    2156     2157     2156 1
    2157     2158     2157 1
    2158     2159     2158 1
    2159     2160     2155 1
    2160     2160     2159 1
    2161     2162     2161 1
    2162     2163     2162 1
    2163     2164     2163 1
    2164     2165     2164 1
    2165     2166     2161 1
    2166     2166     2165 1
    2167     2168     2167 1
    2168     2169     2168 1
    2169     2170     2169 1
    2170     2171     2170 1
    2171     2172     2167 1
    2172     2172     2171 1
    2173     2174     2173 1
    2174     2175     2174 1
    2175     2176     2175 1
    2176     2177     2176 1
    2177     2178     2173 1
    2178     2178     2177 1
    2179     2180     2179 1
    2180     2181     2180 1
    2181     2182     2181 1
    2182     2183     2182 1
    2183     2184     2179 1
    2184     2184     2183 1
    2185     2186     2185 1
    2186     2187     2186 1
    2187     2188     2187 1
    2188     2189     2188 1
    2189     2190     2185 1
    2190     2190     2189 1
    2191     2192     2191 1
    2192     2193     2192 1
    2193     2194     2193 1
    2194     2195     2194 1
    2195     2196     2191 1
    2196     2196     2195 1
    2197     2198     2197 1
    2198     2199     2198 1
    2199     2200     2199 1
    2200     2201     2200 1
    2201     2202     2197 1
    2202     2202     2201 1
    2203     2204     2203 1
    2204     2205     2204 1
    2205     2206     2205 1
    2206     2207     2206 1
    2207     2208     2203 1
    2208     2208     2207 1
    2209     2210     2209 1
    2210     2211     2210 1
    2211     2212     2211 1
    2212     2213     2212 1
    2213     2214     2209 1
    2214     2214     2213 1
    2215     2216     2215 1
    2216     2217     2216 1
    2217     2218     2217 1
    2218     2219     2218 1
    2219     2220     2215 1
    2220     2220     2219 1
    2221     2222     2221 1
    2222     2223     2222 1
    2223     2224     2223 1
    2224     2225     2224 1
    2225     2226     2221 1
    2226     2226     2225 1
    2227     2228     2227 1
    2228     2229     2228 1
    2229     2230     2229 1
    2230     2231     2230 1
    2231     2232     2227 1
    2232     2232     2231 1
    2233     2234     2233 1
    2234     2235     2234 1
    2235     2236     2235 1
    2236     2237     2236 1
    2237     2238     2233 1
    2238     2238     2237 1
    2239     2240     2239 1
    2240     2241     2240 1
    2241     2242     2241 1
    2242     2243     2242 1
    2243     2244     2239 1
    2244     2244     2243 1
    2245     2246     2245 1
    2246     2247     2246 1
    2247     2248     2247 1
    2248     2249     2248 1
    2249     2250     2245 1
    2250     2250     2249 1
    2251     2252     2251 1
    2252     2253     2252 1
    2253     2254     2253 1
    2254     2255     2254 1
    2255     2256     2251 1
    2256     2256     2255 1
    2257     2258     2257 1
    2258     2259     2258 1
    2259     2260     2259 1
    2260     2261     2260 1
    2261     2262     2257 1
    2262     2262     2261 1
    2263     2264     2263 1
    2264     2265     2264 1
    2265     2266     2265 1
    2266     2267     2266 1
    2267     2268     2263 1
    2268     2268     2267 1
    2269     2270     2269 1
    2270     2271     2270 1
    2271     2272     2271 1
    2272     2273     2272 1
    2273     2274     2269 1
    2274     2274     2273 1
    2275     2276     2275 1
    2276     2277     2276 1
    2277     2278     2277 1
    2278     2279     2278 1
    2279     2280     2275 1
    2280     2280     2279 1
    2281     2282     2281 1
    2282     2283     2282 1
    2283     2284     2283 1
    2284     2285     2284 1
    2285     2286     2281 1
    2286     2286     2285 1
    2287     2288     2287 1
    2288     2289     2288 1
    2289     2290     2289 1
    2290     2291     2290 1
    2291     2292     2287 1
    2292     2292     2291 1
    2293     2294     2293 1
    2294     2295     2294 1
    2295     2296     2295 1
    2296     2297     2296 1
    2297     2298     2293 1
    2298     2298     2297 1
    2299     2300     2299 1
    2300     2301     2300 1
    2301     2302     2301 1
    2302     2303     2302 1
    2303     2304     2299 1
    2304     2304     2303 1
    2305     2306     2305 1
    2306     2307     2306 1
    2307     2308     2307 1
    2308     2309     2308 1
    2309     2310     2305 1
    2310     2310     2309 1
    2311     2312     2311 1
    2312     2313     2312 1
    2313     2314     2313 1
    2314     2315     2314 1
    2315     2316     2311 1
    2316     2316     2315 1
    2317     2318     2317 1
    2318     2319     2318 1
    2319     2320     2319 1
    2320     2321     2320 1
    2321     2322     2317 1
    2322     2322     2321 1
    2323     2324     2323 1
    2324     2325     2324 1
    2325     2326     2325 1
    2326     2327     2326 1
    2327     2328     2323 1
    2328     2328     2327 1
    2329     2330     2329 1
    2330     2331     2330 1
    2331     2332     2331 1
    2332     2333     2332 1
    2333     2334     2329 1
    2334     2334     2333 1
    2335     2336     2335 1
    2336     2337     2336 1
    2337     2338     2337 1
    2338     2339     2338 1
    2339     2340     2335 1
    2340     2340     2339 1
    2341     2342     2341 1
    2342     2343     2342 1
    2343     2344     2343 1
    2344     2345     2344 1
    2345     2346     2341 1
    2346     2346     2345 1
    2347     2348     2347 1
    2348     2349     2348 1
    2349     2350     2349 1
    2350     2351     2350 1
    2351     2352     2347 1
    2352     2352     2351 1
    2353     2354     2353 1
    2354     2355     2354 1
    2355     2356     2355 1
    2356     2357     2356 1
    2357     2358     2353 1
    2358     2358     2357 1
    2359     2360     2359 1
    2360     2361     2360 1
    2361     2362     2361 1
    2362     2363     2362 1
    2363     2364     2359 1
    2364     2364     2363 1
    2365     2366     2365 1
    2366     2367     2366 1
    2367     2368     2367 1
    2368     2369     2368 1
    2369     2370     2365 1
    2370     2370     2369 1
    2371     2372     2371 1
    2372     2373     2372 1
    2373     2374     2373 1
    2374     2375     2374 1
    2375     2376     2371 1
    2376     2376     2375 1
    2377     2378     2377 1
    2378     2379     2378 1
    2379     2380     2379 1
    2380     2381     2380 1
    2381     2382     2377 1
    2382     2382     2381 1
    2383     2384     2383 1
    2384     2385     2384 1
    2385     2386     2385 1
    2386     2387     2386 1
    2387     2388     2383 1
    2388     2388     2387 1
    2389     2390     2389 1
    2390     2391     2390 1
    2391     2392     2391 1
    2392     2393     2392 1
    2393     2394     2389 1
    2394     2394     2393 1
    2395     2396     2395 1
    2396     2397     2396 1
    2397     2398     2397 1
    2398     2399     2398 1
    2399     2400     2395 1
    2400     2400     2399 1
@<TRIPOS>SUBSTRUCTURE
       1 RES             1 RESIDUE    0 1    ROOT      0
